@<TRIPOS>MOLECULE
51263
 62 64 0 0 0
SMALL
GASTEIGER

@<TRIPOS>ATOM
      1 O           2.4771   -1.4775    2.1926 O.3     1  UNL1       -0.3808
      2 O           3.9880   -2.4516   -1.1119 O.2     1  UNL1       -0.2752
      3 O          -5.0470    0.6059    1.6604 O.2     1  UNL1       -0.2432
      4 N          -1.0276   -0.3325   -0.7195 N.3     1  UNL1       -0.3004
      5 N           3.1655   -0.4005   -0.2803 N.am    1  UNL1       -0.2630
      6 N          -4.6296    0.6047   -0.6537 N.ar    1  UNL1       -0.1923
      7 N          -5.4298    0.4731   -1.7546 N.ar    1  UNL1       -0.0428
      8 N          -6.6803    0.3517   -0.0119 N.ar    1  UNL1       -0.1938
      9 N          -6.6333    0.3246   -1.3778 N.ar    1  UNL1       -0.0428
     10 C           1.8040   -0.8370   -0.0111 C.3     1  UNL1        0.0677
     11 C           0.9919    0.3536    0.5346 C.3     1  UNL1       -0.0160
     12 C           1.1595   -1.3177   -1.3258 C.3     1  UNL1       -0.0160
     13 C          -0.5130    0.0760    0.5932 C.3     1  UNL1        0.0010
     14 C          -0.3507   -1.5409   -1.2063 C.3     1  UNL1        0.0010
     15 C           1.8691   -1.9762    1.0181 C.3     1  UNL1        0.0691
     16 C          -2.4738   -0.5435   -0.6602 C.3     1  UNL1        0.0187
     17 C           3.5275    0.9792    0.0133 C.ar    1  UNL1        0.0370
     18 C           4.1569   -1.2654   -0.8182 C.2     1  UNL1        0.2201
     19 C          -3.2045    0.7910   -0.6831 C.3     1  UNL1        0.0611
     20 C           5.5403   -0.6449   -0.9907 C.3     1  UNL1        0.0217
     21 C           3.3761    1.9629   -0.9641 C.ar    1  UNL1       -0.0402
     22 C           4.0248    1.3173    1.2719 C.ar    1  UNL1       -0.0402
     23 C           2.5764   -2.4765    3.2027 C.3     1  UNL1        0.0365
     24 C           6.5516   -1.6145   -1.5834 C.3     1  UNL1       -0.0570
     25 C           3.7223    3.2846   -0.6830 C.ar    1  UNL1       -0.0600
     26 C           4.3709    2.6390    1.5531 C.ar    1  UNL1       -0.0600
     27 C          -5.4024    0.5312    0.4955 C.ar    1  UNL1        0.3641
     28 C           4.2197    3.6227    0.5756 C.ar    1  UNL1       -0.0616
     29 C          -7.9176    0.2070    0.7069 C.3     1  UNL1        0.0456
     30 C          -8.2121   -1.2459    1.0178 C.3     1  UNL1       -0.0453
     31 H           1.3173    0.6593    1.5362 H       1  UNL1        0.0299
     32 H           1.0759    1.2325   -0.1151 H       1  UNL1        0.0299
     33 H           1.3406   -0.5760   -2.1169 H       1  UNL1        0.0299
     34 H           1.6127   -2.2511   -1.6780 H       1  UNL1        0.0299
     35 H          -0.9937    1.0005    0.9307 H       1  UNL1        0.0427
     36 H          -0.7253   -0.6842    1.3555 H       1  UNL1        0.0427
     37 H          -0.5592   -2.3991   -0.5555 H       1  UNL1        0.0427
     38 H          -0.7274   -1.7984   -2.2041 H       1  UNL1        0.0427
     39 H           0.8651   -2.3370    1.2675 H       1  UNL1        0.0581
     40 H           2.4314   -2.8410    0.6520 H       1  UNL1        0.0581
     41 H          -2.7637   -1.1429    0.2131 H       1  UNL1        0.0445
     42 H          -2.8072   -1.1108   -1.5401 H       1  UNL1        0.0445
     43 H          -2.9425    1.4049    0.1841 H       1  UNL1        0.0524
     44 H          -2.9558    1.3609   -1.5860 H       1  UNL1        0.0524
     45 H           5.9142   -0.3182   -0.0154 H       1  UNL1        0.0356
     46 H           5.4714    0.2187   -1.6592 H       1  UNL1        0.0356
     47 H           2.9909    1.7099   -1.9484 H       1  UNL1        0.0636
     48 H           4.1579    0.5620    2.0409 H       1  UNL1        0.0636
     49 H           3.0505   -2.0298    4.0806 H       1  UNL1        0.0523
     50 H           3.1953   -3.3099    2.8566 H       1  UNL1        0.0523
     51 H           1.5820   -2.8349    3.4856 H       1  UNL1        0.0523
     52 H           7.5255   -1.1278   -1.6945 H       1  UNL1        0.0234
     53 H           6.6799   -2.4915   -0.9403 H       1  UNL1        0.0234
     54 H           6.2299   -1.9643   -2.5700 H       1  UNL1        0.0234
     55 H           3.6049    4.0502   -1.4442 H       1  UNL1        0.0618
     56 H           4.7603    2.9019    2.5322 H       1  UNL1        0.0618
     57 H           4.4898    4.6516    0.7942 H       1  UNL1        0.0618
     58 H          -8.7248    0.6485    0.1133 H       1  UNL1        0.0508
     59 H          -7.8352    0.7665    1.6450 H       1  UNL1        0.0508
     60 H          -8.2987   -1.8346    0.0985 H       1  UNL1        0.0247
     61 H          -7.4136   -1.6891    1.6223 H       1  UNL1        0.0247
     62 H          -9.1514   -1.3357    1.5719 H       1  UNL1        0.0247
@<TRIPOS>BOND
     1     1    15    1
     2     1    23    1
     3     2    18    2
     4     3    27    2
     5     4    13    1
     6     4    14    1
     7     4    16    1
     8     5    10    1
     9     5    17    1
    10     5    18   am
    11     6     7   ar
    12     6    19    1
    13     6    27   ar
    14     7     9   ar
    15     8     9   ar
    16     8    27   ar
    17     8    29    1
    18    10    11    1
    19    10    12    1
    20    10    15    1
    21    11    13    1
    22    11    31    1
    23    11    32    1
    24    12    14    1
    25    12    33    1
    26    12    34    1
    27    13    35    1
    28    13    36    1
    29    14    37    1
    30    14    38    1
    31    15    39    1
    32    15    40    1
    33    16    19    1
    34    16    41    1
    35    16    42    1
    36    17    21   ar
    37    17    22   ar
    38    18    20    1
    39    19    43    1
    40    19    44    1
    41    20    24    1
    42    20    45    1
    43    20    46    1
    44    21    25   ar
    45    21    47    1
    46    22    26   ar
    47    22    48    1
    48    23    49    1
    49    23    50    1
    50    23    51    1
    51    24    52    1
    52    24    53    1
    53    24    54    1
    54    25    28   ar
    55    25    55    1
    56    26    28   ar
    57    26    56    1
    58    28    57    1
    59    29    30    1
    60    29    58    1
    61    29    59    1
    62    30    60    1
    63    30    61    1
    64    30    62    1
@<TRIPOS>MOLECULE
166177214
 65 67 0 0 0
SMALL
GASTEIGER

@<TRIPOS>ATOM
      1 O          -2.2824   -0.8641    2.5867 O.3     1  UNL1       -0.3808
      2 O          -3.9120   -2.4284   -0.5880 O.2     1  UNL1       -0.2752
      3 O           5.3979    1.0040    1.3982 O.2     1  UNL1       -0.2432
      4 N           1.1970   -0.6527   -0.5319 N.3     1  UNL1       -0.3004
      5 N          -2.9814   -0.3218   -0.0632 N.am    1  UNL1       -0.2630
      6 N           4.8569    0.0269   -0.6706 N.ar    1  UNL1       -0.1923
      7 N           5.5847   -0.6338   -1.6198 N.ar    1  UNL1       -0.0428
      8 N           6.9183   -0.0831   -0.0281 N.ar    1  UNL1       -0.1938
      9 N           6.7954   -0.6982   -1.2427 N.ar    1  UNL1       -0.0428
     10 C          -1.6451   -0.7823    0.2837 C.3     1  UNL1        0.0677
     11 C          -1.0657   -1.5901   -0.8943 C.3     1  UNL1       -0.0160
     12 C          -0.7470    0.4422    0.5419 C.3     1  UNL1       -0.0160
     13 C           0.4290   -1.8879   -0.7324 C.3     1  UNL1        0.0010
     14 C           0.7370    0.0770    0.6561 C.3     1  UNL1        0.0010
     15 C          -1.7575   -1.6583    1.5427 C.3     1  UNL1        0.0691
     16 C           2.6259   -0.9481   -0.4310 C.3     1  UNL1        0.0187
     17 C          -3.2049    1.1179   -0.0735 C.ar    1  UNL1        0.0370
     18 C          -4.0171   -1.2043   -0.4767 C.2     1  UNL1        0.2203
     19 C           3.4462    0.2944   -0.7473 C.3     1  UNL1        0.0611
     20 C          -5.3650   -0.5427   -0.7545 C.3     1  UNL1        0.0243
     21 C          -3.7185    1.7523    1.0576 C.ar    1  UNL1       -0.0402
     22 C          -2.9057    1.8618   -1.2148 C.ar    1  UNL1       -0.0402
     23 C          -2.4199   -1.6024    3.7968 C.3     1  UNL1        0.0365
     24 C          -6.4344   -1.5436   -1.1943 C.3     1  UNL1       -0.0476
     25 C          -3.9331    3.1305    1.0473 C.ar    1  UNL1       -0.0600
     26 C          -3.1202    3.2399   -1.2252 C.ar    1  UNL1       -0.0600
     27 C           5.6836    0.4004    0.3770 C.ar    1  UNL1        0.3641
     28 C          -3.6339    3.8743   -0.0941 C.ar    1  UNL1       -0.0616
     29 C          -7.7720   -0.8613   -1.4326 C.3     1  UNL1       -0.0648
     30 C           8.1737    0.0096    0.6654 C.3     1  UNL1        0.0456
     31 C           9.0701    1.0719    0.0618 C.3     1  UNL1       -0.0453
     32 H          -1.2125   -1.0353   -1.8318 H       1  UNL1        0.0299
     33 H          -1.5799   -2.5483   -1.0230 H       1  UNL1        0.0299
     34 H          -0.7634    1.1516   -0.2912 H       1  UNL1        0.0299
     35 H          -1.0290    0.9913    1.4483 H       1  UNL1        0.0299
     36 H           0.5918   -2.5922    0.0928 H       1  UNL1        0.0427
     37 H           0.7675   -2.3878   -1.6487 H       1  UNL1        0.0427
     38 H           1.2863    1.0168    0.7757 H       1  UNL1        0.0427
     39 H           0.9107   -0.5056    1.5696 H       1  UNL1        0.0427
     40 H          -0.7785   -2.0432    1.8476 H       1  UNL1        0.0581
     41 H          -2.4079   -2.5248    1.3809 H       1  UNL1        0.0581
     42 H           2.9026   -1.7177   -1.1645 H       1  UNL1        0.0445
     43 H           2.8900   -1.3584    0.5528 H       1  UNL1        0.0445
     44 H           3.2320    0.6546   -1.7606 H       1  UNL1        0.0524
     45 H           3.2274    1.1107   -0.0527 H       1  UNL1        0.0524
     46 H          -5.7056   -0.0437    0.1591 H       1  UNL1        0.0358
     47 H          -5.2419    0.2046   -1.5453 H       1  UNL1        0.0358
     48 H          -3.9625    1.1847    1.9512 H       1  UNL1        0.0636
     49 H          -2.5114    1.3774   -2.1045 H       1  UNL1        0.0636
     50 H          -2.8280   -0.9352    4.5606 H       1  UNL1        0.0523
     51 H          -3.1108   -2.4394    3.6576 H       1  UNL1        0.0523
     52 H          -1.4454   -1.9676    4.1350 H       1  UNL1        0.0523
     53 H          -6.1167   -2.0501   -2.1135 H       1  UNL1        0.0267
     54 H          -6.5588   -2.3197   -0.4296 H       1  UNL1        0.0267
     55 H          -4.3346    3.6242    1.9274 H       1  UNL1        0.0618
     56 H          -2.8887    3.8188   -2.1145 H       1  UNL1        0.0618
     57 H          -3.8016    4.9473   -0.1024 H       1  UNL1        0.0618
     58 H          -8.1333   -0.3766   -0.5200 H       1  UNL1        0.0230
     59 H          -7.6905   -0.1016   -2.2165 H       1  UNL1        0.0230
     60 H          -8.5210   -1.5949   -1.7469 H       1  UNL1        0.0230
     61 H           8.6607   -0.9705    0.6277 H       1  UNL1        0.0508
     62 H           7.9772    0.2516    1.7154 H       1  UNL1        0.0508
     63 H          10.0139    1.1333    0.6121 H       1  UNL1        0.0247
     64 H           8.5892    2.0553    0.0938 H       1  UNL1        0.0247
     65 H           9.2990    0.8473   -0.9853 H       1  UNL1        0.0247
@<TRIPOS>BOND
     1     1    15    1
     2     1    23    1
     3     2    18    2
     4     3    27    2
     5     4    13    1
     6     4    14    1
     7     4    16    1
     8     5    10    1
     9     5    17    1
    10     5    18   am
    11     6     7   ar
    12     6    19    1
    13     6    27   ar
    14     7     9   ar
    15     8     9   ar
    16     8    27   ar
    17     8    30    1
    18    10    11    1
    19    10    12    1
    20    10    15    1
    21    11    13    1
    22    11    32    1
    23    11    33    1
    24    12    14    1
    25    12    34    1
    26    12    35    1
    27    13    36    1
    28    13    37    1
    29    14    38    1
    30    14    39    1
    31    15    40    1
    32    15    41    1
    33    16    19    1
    34    16    42    1
    35    16    43    1
    36    17    21   ar
    37    17    22   ar
    38    18    20    1
    39    19    44    1
    40    19    45    1
    41    20    24    1
    42    20    46    1
    43    20    47    1
    44    21    25   ar
    45    21    48    1
    46    22    26   ar
    47    22    49    1
    48    23    50    1
    49    23    51    1
    50    23    52    1
    51    24    29    1
    52    24    53    1
    53    24    54    1
    54    25    28   ar
    55    25    55    1
    56    26    28   ar
    57    26    56    1
    58    28    57    1
    59    29    58    1
    60    29    59    1
    61    29    60    1
    62    30    31    1
    63    30    61    1
    64    30    62    1
    65    31    63    1
    66    31    64    1
    67    31    65    1
@<TRIPOS>MOLECULE
9946998
 54 56 0 0 0
SMALL
GASTEIGER

@<TRIPOS>ATOM
      1 O          -4.5769    2.1886    0.4666 O.3     1  UNL1       -0.3809
      2 O           3.9356   -1.7992   -0.3236 O.2     1  UNL1       -0.2432
      3 N           0.4637    1.4547   -0.0800 N.3     1  UNL1       -0.3004
      4 N          -2.8009    0.0872    0.8404 N.pl3   1  UNL1       -0.3360
      5 N           4.0310    0.5327   -0.6112 N.ar    1  UNL1       -0.1923
      6 N           5.0370    1.4532   -0.5105 N.ar    1  UNL1       -0.0428
      7 N           5.8655   -0.4799   -0.0724 N.ar    1  UNL1       -0.1938
      8 N           6.1136    0.8588   -0.1943 N.ar    1  UNL1       -0.0428
      9 C          -2.4759    1.1818   -0.0617 C.3     1  UNL1        0.0576
     10 C          -1.7287    2.2749    0.7198 C.3     1  UNL1       -0.0167
     11 C          -1.5941    0.6629   -1.2110 C.3     1  UNL1       -0.0167
     12 C          -0.3061    1.8549    1.1044 C.3     1  UNL1        0.0010
     13 C          -0.1687    0.3192   -0.7627 C.3     1  UNL1        0.0010
     14 C          -3.7943    1.7337   -0.6187 C.3     1  UNL1        0.0685
     15 C           1.8401    1.1264    0.2909 C.3     1  UNL1        0.0187
     16 C           2.6666    0.8305   -0.9520 C.3     1  UNL1        0.0611
     17 C          -3.4829   -1.0444    0.4439 C.ar    1  UNL1        0.0276
     18 C          -4.8907   -1.1070    0.5089 C.ar    1  UNL1       -0.0408
     19 C          -2.7952   -2.1773   -0.0395 C.ar    1  UNL1       -0.0408
     20 C          -5.8254    2.7196    0.0335 C.3     1  UNL1        0.0365
     21 C           4.5275   -0.7323   -0.3341 C.ar    1  UNL1        0.3641
     22 C          -5.5801   -2.2516    0.1086 C.ar    1  UNL1       -0.0600
     23 C          -3.4847   -3.3218   -0.4399 C.ar    1  UNL1       -0.0600
     24 C          -4.8772   -3.3588   -0.3658 C.ar    1  UNL1       -0.0616
     25 C           6.9013   -1.4136    0.2798 C.3     1  UNL1        0.0456
     26 C           6.9997   -1.5931    1.7807 C.3     1  UNL1       -0.0453
     27 H          -1.6674    3.1861    0.1089 H       1  UNL1        0.0299
     28 H          -2.2697    2.5491    1.6344 H       1  UNL1        0.0299
     29 H          -2.0394   -0.1931   -1.7294 H       1  UNL1        0.0299
     30 H          -1.5189    1.4513   -1.9745 H       1  UNL1        0.0299
     31 H           0.1780    2.7122    1.5884 H       1  UNL1        0.0427
     32 H          -0.3405    1.0446    1.8443 H       1  UNL1        0.0427
     33 H          -0.1671   -0.5671   -0.1188 H       1  UNL1        0.0427
     34 H           0.3529    0.0542   -1.6858 H       1  UNL1        0.0427
     35 H          -4.3440    0.9875   -1.2044 H       1  UNL1        0.0581
     36 H          -3.5886    2.5791   -1.2884 H       1  UNL1        0.0581
     37 H          -3.0754    0.3953    1.7712 H       1  UNL1        0.1467
     38 H           1.8751    0.2745    0.9834 H       1  UNL1        0.0445
     39 H           2.2945    1.9771    0.8156 H       1  UNL1        0.0445
     40 H           2.3065   -0.0492   -1.4907 H       1  UNL1        0.0524
     41 H           2.6655    1.6812   -1.6432 H       1  UNL1        0.0524
     42 H          -5.4616   -0.2665    0.8945 H       1  UNL1        0.0636
     43 H          -1.7105   -2.1841   -0.0910 H       1  UNL1        0.0636
     44 H          -6.4099    1.9520   -0.4826 H       1  UNL1        0.0523
     45 H          -6.3818    3.0495    0.9148 H       1  UNL1        0.0523
     46 H          -5.6671    3.5801   -0.6237 H       1  UNL1        0.0523
     47 H          -6.6640   -2.2825    0.1708 H       1  UNL1        0.0618
     48 H          -2.9374   -4.1858   -0.8052 H       1  UNL1        0.0618
     49 H          -5.4139   -4.2508   -0.6757 H       1  UNL1        0.0618
     50 H           6.6644   -2.3775   -0.1834 H       1  UNL1        0.0508
     51 H           7.8519   -1.0589   -0.1320 H       1  UNL1        0.0508
     52 H           7.2343   -0.6447    2.2752 H       1  UNL1        0.0247
     53 H           6.0553   -1.9600    2.1963 H       1  UNL1        0.0247
     54 H           7.7858   -2.3126    2.0292 H       1  UNL1        0.0247
@<TRIPOS>BOND
     1     1    14    1
     2     1    20    1
     3     2    21    2
     4     3    12    1
     5     3    13    1
     6     3    15    1
     7     4     9    1
     8     4    17    1
     9     4    37    1
    10     5     6   ar
    11     5    16    1
    12     5    21   ar
    13     6     8   ar
    14     7     8   ar
    15     7    21   ar
    16     7    25    1
    17     9    10    1
    18     9    11    1
    19     9    14    1
    20    10    12    1
    21    10    27    1
    22    10    28    1
    23    11    13    1
    24    11    29    1
    25    11    30    1
    26    12    31    1
    27    12    32    1
    28    13    33    1
    29    13    34    1
    30    14    35    1
    31    14    36    1
    32    15    16    1
    33    15    38    1
    34    15    39    1
    35    16    40    1
    36    16    41    1
    37    17    18   ar
    38    17    19   ar
    39    18    22   ar
    40    18    42    1
    41    19    23   ar
    42    19    43    1
    43    20    44    1
    44    20    45    1
    45    20    46    1
    46    22    24   ar
    47    22    47    1
    48    23    24   ar
    49    23    48    1
    50    24    49    1
    51    25    26    1
    52    25    50    1
    53    25    51    1
    54    26    52    1
    55    26    53    1
    56    26    54    1
@<TRIPOS>MOLECULE
145996686
 51 52 0 0 0
SMALL
GASTEIGER

@<TRIPOS>ATOM
      1 O          -0.4910    1.3189   -2.2994 O.3     1  UNL1       -0.3808
      2 O          -1.7882    2.5484    1.1637 O.2     1  UNL1       -0.2752
      3 O           6.5246   -0.9712    0.2883 O.3     1  UNL1       -0.3937
      4 N           3.0070    0.1202    0.5648 N.3     1  UNL1       -0.3000
      5 N          -1.1868    0.4492    0.2626 N.am    1  UNL1       -0.2630
      6 C           0.1917    0.7721   -0.0741 C.3     1  UNL1        0.0677
      7 C           0.8965   -0.5049   -0.5691 C.3     1  UNL1       -0.0160
      8 C           0.9140    1.2874    1.1863 C.3     1  UNL1       -0.0160
      9 C           2.4139   -0.3336   -0.6992 C.3     1  UNL1        0.0010
     10 C           2.4310    1.3993    0.9980 C.3     1  UNL1        0.0010
     11 C           0.1717    1.8505   -1.1705 C.3     1  UNL1        0.0691
     12 C           4.4602    0.2286    0.4395 C.3     1  UNL1        0.0221
     13 C          -1.6152   -0.9279    0.0553 C.ar    1  UNL1        0.0370
     14 C          -2.0718    1.3860    0.8640 C.2     1  UNL1        0.2201
     15 C           5.1204   -1.1416    0.4288 C.3     1  UNL1        0.0569
     16 C          -3.4921    0.8810    1.1011 C.3     1  UNL1        0.0217
     17 C          -2.2470   -1.2904   -1.1344 C.ar    1  UNL1       -0.0402
     18 C          -1.3941   -1.8836    1.0469 C.ar    1  UNL1       -0.0402
     19 C          -0.5542    2.2581   -3.3681 C.3     1  UNL1        0.0365
     20 C          -4.3914    1.9286    1.7396 C.3     1  UNL1       -0.0570
     21 C          -2.6577   -2.6087   -1.3323 C.ar    1  UNL1       -0.0600
     22 C          -1.8048   -3.2019    0.8489 C.ar    1  UNL1       -0.0600
     23 C          -2.4366   -3.5644   -0.3407 C.ar    1  UNL1       -0.0616
     24 H           0.5131   -0.8533   -1.5358 H       1  UNL1        0.0299
     25 H           0.8012   -1.3326    0.1404 H       1  UNL1        0.0299
     26 H           0.7149    0.6116    2.0299 H       1  UNL1        0.0299
     27 H           0.5472    2.2730    1.4917 H       1  UNL1        0.0299
     28 H           2.6454    0.3607   -1.5167 H       1  UNL1        0.0427
     29 H           2.8155   -1.3091   -0.9928 H       1  UNL1        0.0427
     30 H           2.6701    2.2007    0.2879 H       1  UNL1        0.0427
     31 H           2.8642    1.6901    1.9632 H       1  UNL1        0.0427
     32 H           1.1871    2.1418   -1.4597 H       1  UNL1        0.0581
     33 H          -0.3423    2.7597   -0.8401 H       1  UNL1        0.0581
     34 H           4.8765    0.7769    1.2957 H       1  UNL1        0.0449
     35 H           4.7545    0.8073   -0.4463 H       1  UNL1        0.0449
     36 H           4.9276   -1.6770    1.3646 H       1  UNL1        0.0570
     37 H           4.7885   -1.7626   -0.4067 H       1  UNL1        0.0570
     38 H          -3.4612    0.0096    1.7627 H       1  UNL1        0.0356
     39 H          -3.9326    0.5881    0.1428 H       1  UNL1        0.0356
     40 H          -2.4318   -0.5552   -1.9125 H       1  UNL1        0.0636
     41 H          -0.9090   -1.6114    1.9808 H       1  UNL1        0.0636
     42 H          -1.0753    1.7884   -4.2065 H       1  UNL1        0.0523
     43 H          -1.1132    3.1478   -3.0626 H       1  UNL1        0.0523
     44 H           0.4529    2.5364   -3.6930 H       1  UNL1        0.0523
     45 H          -4.4745    2.8163    1.1039 H       1  UNL1        0.0234
     46 H          -5.3967    1.5241    1.8935 H       1  UNL1        0.0234
     47 H          -3.9981    2.2453    2.7112 H       1  UNL1        0.0234
     48 H          -3.1510   -2.8906   -2.2579 H       1  UNL1        0.0618
     49 H          -1.6340   -3.9457    1.6217 H       1  UNL1        0.0618
     50 H           6.9227   -1.8583    0.2981 H       1  UNL1        0.2095
     51 H          -2.7569   -4.5907   -0.4945 H       1  UNL1        0.0618
@<TRIPOS>BOND
     1     1    11    1
     2     1    19    1
     3     2    14    2
     4     3    15    1
     5     3    50    1
     6     4     9    1
     7     4    10    1
     8     4    12    1
     9     5     6    1
    10     5    13    1
    11     5    14   am
    12     6     7    1
    13     6     8    1
    14     6    11    1
    15     7     9    1
    16     7    24    1
    17     7    25    1
    18     8    10    1
    19     8    26    1
    20     8    27    1
    21     9    28    1
    22     9    29    1
    23    10    30    1
    24    10    31    1
    25    11    32    1
    26    11    33    1
    27    12    15    1
    28    12    34    1
    29    12    35    1
    30    13    17   ar
    31    13    18   ar
    32    14    16    1
    33    15    36    1
    34    15    37    1
    35    16    20    1
    36    16    38    1
    37    16    39    1
    38    17    21   ar
    39    17    40    1
    40    18    22   ar
    41    18    41    1
    42    19    42    1
    43    19    43    1
    44    19    44    1
    45    20    45    1
    46    20    46    1
    47    20    47    1
    48    21    23   ar
    49    21    48    1
    50    22    23   ar
    51    22    49    1
    52    23    51    1
@<TRIPOS>MOLECULE
14494490
 67 69 0 0 0
SMALL
GASTEIGER

@<TRIPOS>ATOM
      1 O           2.3874    1.9662   -0.2163 O.3     1  UNL1       -0.4625
      2 O           3.6807    0.0169    2.7298 O.2     1  UNL1       -0.2752
      3 O           2.3413    4.1028    0.6539 O.2     1  UNL1       -0.2509
      4 O          -5.2397    0.8449   -1.5604 O.2     1  UNL1       -0.2432
      5 N          -1.3781   -0.6567    0.7919 N.3     1  UNL1       -0.3004
      6 N           2.8353   -0.6484    0.6279 N.am    1  UNL1       -0.2620
      7 N          -5.0020   -0.9149   -0.0190 N.ar    1  UNL1       -0.1923
      8 N          -5.8780   -1.5787    0.7944 N.ar    1  UNL1       -0.0428
      9 N          -6.9842   -0.0914   -0.2919 N.ar    1  UNL1       -0.1938
     10 N          -7.0413   -1.0953    0.6341 N.ar    1  UNL1       -0.0428
     11 C           1.5191   -0.0410    0.7517 C.3     1  UNL1        0.0785
     12 C           0.6998   -0.3512   -0.5161 C.3     1  UNL1       -0.0150
     13 C           0.7970   -0.6468    1.9710 C.3     1  UNL1       -0.0150
     14 C          -0.7824    0.0067   -0.3744 C.3     1  UNL1        0.0010
     15 C          -0.6882   -0.2791    2.0315 C.3     1  UNL1        0.0010
     16 C           1.7133    1.4736    0.9242 C.3     1  UNL1        0.1142
     17 C          -2.8048   -0.3475    0.8843 C.3     1  UNL1        0.0187
     18 C           3.1578   -1.3733   -0.5932 C.ar    1  UNL1        0.0370
     19 C           3.8194   -0.5632    1.6499 C.2     1  UNL1        0.2201
     20 C          -3.5930   -1.1836   -0.1132 C.3     1  UNL1        0.0611
     21 C           5.1568   -1.2222    1.3247 C.3     1  UNL1        0.0217
     22 C           3.7351   -0.7022   -1.6712 C.ar    1  UNL1       -0.0402
     23 C           2.8885   -2.7390   -0.6852 C.ar    1  UNL1       -0.0402
     24 C           2.6465    3.3154   -0.2312 C.2     1  UNL1        0.3069
     25 C           6.1611   -1.1104    2.4618 C.3     1  UNL1       -0.0570
     26 C           4.0435   -1.3968   -2.8410 C.ar    1  UNL1       -0.0600
     27 C           3.1969   -3.4335   -1.8549 C.ar    1  UNL1       -0.0600
     28 C          -5.6801    0.0571   -0.7392 C.ar    1  UNL1        0.3641
     29 C           3.3670    3.6776   -1.5087 C.3     1  UNL1        0.0421
     30 C           3.7743   -2.7625   -2.9328 C.ar    1  UNL1       -0.0616
     31 C           3.6664    5.1640   -1.5945 C.3     1  UNL1       -0.0552
     32 C          -8.1548    0.6472   -0.6822 C.3     1  UNL1        0.0456
     33 C          -8.3604    1.8652    0.1946 C.3     1  UNL1       -0.0453
     34 H           0.6949   -1.4236   -0.7426 H       1  UNL1        0.0299
     35 H           1.0877    0.1649   -1.4025 H       1  UNL1        0.0299
     36 H           1.2624   -0.3313    2.9114 H       1  UNL1        0.0299
     37 H           0.8839   -1.7424    1.9429 H       1  UNL1        0.0299
     38 H          -0.9019    1.0957   -0.3141 H       1  UNL1        0.0427
     39 H          -1.2758   -0.3116   -1.2989 H       1  UNL1        0.0427
     40 H          -1.1289   -0.8196    2.8786 H       1  UNL1        0.0427
     41 H          -0.8080    0.7915    2.2392 H       1  UNL1        0.0427
     42 H           2.2847    1.7235    1.8237 H       1  UNL1        0.0719
     43 H           0.7476    1.9845    1.0081 H       1  UNL1        0.0719
     44 H          -3.1796   -0.5991    1.8860 H       1  UNL1        0.0445
     45 H          -2.9999    0.7248    0.7493 H       1  UNL1        0.0445
     46 H          -3.4399   -2.2548    0.0628 H       1  UNL1        0.0524
     47 H          -3.2923   -0.9662   -1.1426 H       1  UNL1        0.0524
     48 H           5.5900   -0.7438    0.4407 H       1  UNL1        0.0356
     49 H           4.9988   -2.2853    1.1195 H       1  UNL1        0.0356
     50 H           3.9606    0.3582   -1.6126 H       1  UNL1        0.0636
     51 H           2.4401   -3.2717    0.1494 H       1  UNL1        0.0636
     52 H           5.7801   -1.5863    3.3714 H       1  UNL1        0.0234
     53 H           6.3770   -0.0624    2.6948 H       1  UNL1        0.0234
     54 H           7.1013   -1.5994    2.1885 H       1  UNL1        0.0234
     55 H           4.4952   -0.8748   -3.6794 H       1  UNL1        0.0618
     56 H           2.9877   -4.4968   -1.9261 H       1  UNL1        0.0618
     57 H           2.7379    3.3842   -2.3556 H       1  UNL1        0.0375
     58 H           4.3056    3.1150   -1.5470 H       1  UNL1        0.0375
     59 H           4.0150   -3.3033   -3.8433 H       1  UNL1        0.0618
     60 H           2.7440    5.7534   -1.5610 H       1  UNL1        0.0235
     61 H           4.2999    5.4862   -0.7615 H       1  UNL1        0.0235
     62 H           4.1864    5.3948   -2.5293 H       1  UNL1        0.0235
     63 H          -9.0241   -0.0170   -0.6342 H       1  UNL1        0.0508
     64 H          -8.0252    0.9691   -1.7212 H       1  UNL1        0.0508
     65 H          -8.4915    1.5770    1.2428 H       1  UNL1        0.0247
     66 H          -7.4991    2.5395    0.1405 H       1  UNL1        0.0247
     67 H          -9.2494    2.4190   -0.1223 H       1  UNL1        0.0247
@<TRIPOS>BOND
     1     1    16    1
     2     1    24    1
     3     2    19    2
     4     3    24    2
     5     4    28    2
     6     5    14    1
     7     5    15    1
     8     5    17    1
     9     6    11    1
    10     6    18    1
    11     6    19   am
    12     7     8   ar
    13     7    20    1
    14     7    28   ar
    15     8    10   ar
    16     9    10   ar
    17     9    28   ar
    18     9    32    1
    19    11    12    1
    20    11    13    1
    21    11    16    1
    22    12    14    1
    23    12    34    1
    24    12    35    1
    25    13    15    1
    26    13    36    1
    27    13    37    1
    28    14    38    1
    29    14    39    1
    30    15    40    1
    31    15    41    1
    32    16    42    1
    33    16    43    1
    34    17    20    1
    35    17    44    1
    36    17    45    1
    37    18    22   ar
    38    18    23   ar
    39    19    21    1
    40    20    46    1
    41    20    47    1
    42    21    25    1
    43    21    48    1
    44    21    49    1
    45    22    26   ar
    46    22    50    1
    47    23    27   ar
    48    23    51    1
    49    24    29    1
    50    25    52    1
    51    25    53    1
    52    25    54    1
    53    26    30   ar
    54    26    55    1
    55    27    30   ar
    56    27    56    1
    57    29    31    1
    58    29    57    1
    59    29    58    1
    60    30    59    1
    61    31    60    1
    62    31    61    1
    63    31    62    1
    64    32    33    1
    65    32    63    1
    66    32    64    1
    67    33    65    1
    68    33    66    1
    69    33    67    1
@<TRIPOS>MOLECULE
145996648
 59 61 0 0 0
SMALL
GASTEIGER

@<TRIPOS>ATOM
      1 O          -2.8330   -1.3708    2.2130 O.3     1  UNL1       -0.3808
      2 O          -4.2821   -2.5362   -1.2060 O.2     1  UNL1       -0.2755
      3 O           4.8136    0.8864    1.6429 O.2     1  UNL1       -0.2432
      4 N           0.7597   -0.6176   -0.6856 N.3     1  UNL1       -0.3004
      5 N          -3.4437   -0.4873   -0.3660 N.am    1  UNL1       -0.2633
      6 N           4.3940    0.1901   -0.5631 N.ar    1  UNL1       -0.1923
      7 N           5.1841   -0.3088   -1.5602 N.ar    1  UNL1       -0.0428
      8 N           6.4303    0.0569    0.1511 N.ar    1  UNL1       -0.1938
      9 N           6.3801   -0.3868   -1.1409 N.ar    1  UNL1       -0.0428
     10 C          -2.1063   -0.9491   -0.0255 C.3     1  UNL1        0.0677
     11 C          -1.2661    0.2552    0.4393 C.3     1  UNL1       -0.0160
     12 C          -1.4496   -1.5664   -1.2760 C.3     1  UNL1       -0.0160
     13 C           0.2248   -0.0752    0.5694 C.3     1  UNL1        0.0010
     14 C           0.0475   -1.8365   -1.0889 C.3     1  UNL1        0.0010
     15 C          -2.2367   -1.9949    1.0945 C.3     1  UNL1        0.0691
     16 C           2.1934   -0.8788   -0.5616 C.3     1  UNL1        0.0187
     17 C          -3.7230    0.9317   -0.1889 C.ar    1  UNL1        0.0369
     18 C          -4.4229   -1.3410   -0.9346 C.2     1  UNL1        0.2172
     19 C           2.9785    0.4209   -0.6662 C.3     1  UNL1        0.0611
     20 C          -4.3002    1.3866    0.9968 C.ar    1  UNL1       -0.0402
     21 C          -3.4138    1.8354   -1.2055 C.ar    1  UNL1       -0.0402
     22 C          -5.7754   -0.7147   -1.1849 C.3     1  UNL1        0.0127
     23 C          -2.9916   -2.2743    3.3024 C.3     1  UNL1        0.0365
     24 C          -4.5680    2.7451    1.1657 C.ar    1  UNL1       -0.0600
     25 C          -3.6816    3.1938   -1.0365 C.ar    1  UNL1       -0.0600
     26 C           5.1630    0.4400    0.5624 C.ar    1  UNL1        0.3641
     27 C          -4.2588    3.6486    0.1491 C.ar    1  UNL1       -0.0616
     28 C           7.6522    0.0919    0.9070 C.3     1  UNL1        0.0456
     29 C           8.5318    1.2556    0.4967 C.3     1  UNL1       -0.0453
     30 H          -1.6051    0.6634    1.3991 H       1  UNL1        0.0299
     31 H          -1.2769    1.0730   -0.2881 H       1  UNL1        0.0299
     32 H          -1.5788   -0.8912   -2.1337 H       1  UNL1        0.0299
     33 H          -1.9228   -2.5127   -1.5587 H       1  UNL1        0.0299
     34 H           0.7330    0.8558    0.8420 H       1  UNL1        0.0427
     35 H           0.3830   -0.7734    1.4010 H       1  UNL1        0.0427
     36 H           0.2029   -2.6433   -0.3620 H       1  UNL1        0.0427
     37 H           0.4414   -2.1930   -2.0490 H       1  UNL1        0.0427
     38 H          -1.2568   -2.3868    1.3878 H       1  UNL1        0.0581
     39 H          -2.8460   -2.8514    0.7861 H       1  UNL1        0.0581
     40 H           2.4326   -1.4134    0.3673 H       1  UNL1        0.0445
     41 H           2.5284   -1.5297   -1.3807 H       1  UNL1        0.0445
     42 H           2.7923    0.9117   -1.6289 H       1  UNL1        0.0524
     43 H           2.7012    1.1252    0.1235 H       1  UNL1        0.0524
     44 H          -4.5529    0.6935    1.7941 H       1  UNL1        0.0636
     45 H          -2.9696    1.4918   -2.1362 H       1  UNL1        0.0636
     46 H          -6.2198   -0.3713   -0.2475 H       1  UNL1        0.0323
     47 H          -6.4454   -1.4648   -1.6177 H       1  UNL1        0.0323
     48 H          -5.6962    0.1092   -1.8982 H       1  UNL1        0.0323
     49 H          -3.4551   -1.7331    4.1314 H       1  UNL1        0.0523
     50 H          -3.6444   -3.1052    3.0181 H       1  UNL1        0.0523
     51 H          -2.0187   -2.6521    3.6309 H       1  UNL1        0.0523
     52 H          -5.0189    3.0990    2.0881 H       1  UNL1        0.0618
     53 H          -3.4421    3.8971   -1.8286 H       1  UNL1        0.0618
     54 H          -4.4680    4.7062    0.2804 H       1  UNL1        0.0618
     55 H           8.1769   -0.8576    0.7569 H       1  UNL1        0.0508
     56 H           7.4043    0.1790    1.9703 H       1  UNL1        0.0508
     57 H           8.0134    2.2093    0.6419 H       1  UNL1        0.0247
     58 H           8.8113    1.1863   -0.5598 H       1  UNL1        0.0247
     59 H           9.4496    1.2697    1.0925 H       1  UNL1        0.0247
@<TRIPOS>BOND
     1     1    15    1
     2     1    23    1
     3     2    18    2
     4     3    26    2
     5     4    13    1
     6     4    14    1
     7     4    16    1
     8     5    10    1
     9     5    17    1
    10     5    18   am
    11     6     7   ar
    12     6    19    1
    13     6    26   ar
    14     7     9   ar
    15     8     9   ar
    16     8    26   ar
    17     8    28    1
    18    10    11    1
    19    10    12    1
    20    10    15    1
    21    11    13    1
    22    11    30    1
    23    11    31    1
    24    12    14    1
    25    12    32    1
    26    12    33    1
    27    13    34    1
    28    13    35    1
    29    14    36    1
    30    14    37    1
    31    15    38    1
    32    15    39    1
    33    16    19    1
    34    16    40    1
    35    16    41    1
    36    17    20   ar
    37    17    21   ar
    38    18    22    1
    39    19    42    1
    40    19    43    1
    41    20    24   ar
    42    20    44    1
    43    21    25   ar
    44    21    45    1
    45    22    46    1
    46    22    47    1
    47    22    48    1
    48    23    49    1
    49    23    50    1
    50    23    51    1
    51    24    27   ar
    52    24    52    1
    53    25    27   ar
    54    25    53    1
    55    27    54    1
    56    28    29    1
    57    28    55    1
    58    28    56    1
    59    29    57    1
    60    29    58    1
    61    29    59    1
@<TRIPOS>MOLECULE
162172
 44 45 0 0 0
SMALL
GASTEIGER

@<TRIPOS>ATOM
      1 O           1.1333   -0.5999    2.2188 O.3     1  UNL1       -0.3808
      2 O           0.1781   -2.7803   -0.7210 O.2     1  UNL1       -0.2752
      3 N          -0.1956   -0.4985   -0.2430 N.am    1  UNL1       -0.2630
      4 N           3.2579    1.6880   -1.2645 N.3     1  UNL1       -0.3158
      5 C           1.1984   -0.0993   -0.1201 C.3     1  UNL1        0.0677
      6 C           1.9190   -0.3825   -1.4529 C.3     1  UNL1       -0.0163
      7 C           1.2694    1.4126    0.1779 C.3     1  UNL1       -0.0163
      8 C           3.3098    0.2500   -1.5236 C.3     1  UNL1       -0.0021
      9 C           2.6841    1.9787    0.0483 C.3     1  UNL1       -0.0021
     10 C           1.8266   -0.9090    1.0264 C.3     1  UNL1        0.0691
     11 C          -1.2297    0.5096   -0.0553 C.ar    1  UNL1        0.0370
     12 C          -0.5892   -1.8317   -0.5388 C.2     1  UNL1        0.2201
     13 C          -2.0929   -2.0535   -0.6740 C.3     1  UNL1        0.0217
     14 C          -1.7135    0.6975    1.2075 C.ar    1  UNL1       -0.0402
     15 C          -1.6497    1.2025   -1.1543 C.ar    1  UNL1       -0.0402
     16 C           1.6562   -1.3124    3.3353 C.3     1  UNL1        0.0365
     17 C          -2.4507   -3.5011   -0.9755 C.3     1  UNL1       -0.0570
     18 C          -2.7040    1.6631    1.3871 C.ar    1  UNL1       -0.0600
     19 C          -2.6403    2.1680   -0.9746 C.ar    1  UNL1       -0.0600
     20 C          -3.1674    2.3982    0.2961 C.ar    1  UNL1       -0.0616
     21 H           1.3171    0.0058   -2.2868 H       1  UNL1        0.0299
     22 H           2.0262   -1.4580   -1.6326 H       1  UNL1        0.0299
     23 H           0.8953    1.6642    1.1773 H       1  UNL1        0.0299
     24 H           0.6838    1.9957   -0.5418 H       1  UNL1        0.0299
     25 H           3.9979   -0.2384   -0.8241 H       1  UNL1        0.0425
     26 H           3.7199    0.0909   -2.5272 H       1  UNL1        0.0425
     27 H           2.6455    3.0663    0.1788 H       1  UNL1        0.0425
     28 H           3.3339    1.5930    0.8422 H       1  UNL1        0.0425
     29 H           2.8828   -0.6486    1.1570 H       1  UNL1        0.0581
     30 H           1.7887   -1.9883    0.8484 H       1  UNL1        0.0581
     31 H           4.2005    2.0735   -1.3134 H       1  UNL1        0.1219
     32 H          -2.4795   -1.4331   -1.4883 H       1  UNL1        0.0356
     33 H          -2.5889   -1.7742    0.2605 H       1  UNL1        0.0356
     34 H          -1.3680    0.1216    2.0584 H       1  UNL1        0.0636
     35 H          -1.2415    1.0232   -2.1436 H       1  UNL1        0.0636
     36 H           1.5547   -2.3911    3.1821 H       1  UNL1        0.0523
     37 H           1.0820   -1.0296    4.2215 H       1  UNL1        0.0523
     38 H           2.7058   -1.0500    3.4994 H       1  UNL1        0.0523
     39 H          -3.5359   -3.6155   -1.0586 H       1  UNL1        0.0234
     40 H          -2.0966   -4.1673   -0.1818 H       1  UNL1        0.0234
     41 H          -1.9999   -3.8300   -1.9177 H       1  UNL1        0.0234
     42 H          -3.1166    1.8403    2.3761 H       1  UNL1        0.0618
     43 H          -3.0014    2.7400   -1.8242 H       1  UNL1        0.0618
     44 H          -3.9392    3.1494    0.4359 H       1  UNL1        0.0618
@<TRIPOS>BOND
     1     1    10    1
     2     1    16    1
     3     2    12    2
     4     3     5    1
     5     3    11    1
     6     3    12   am
     7     4     8    1
     8     4     9    1
     9     4    31    1
    10     5     6    1
    11     5     7    1
    12     5    10    1
    13     6     8    1
    14     6    21    1
    15     6    22    1
    16     7     9    1
    17     7    23    1
    18     7    24    1
    19     8    25    1
    20     8    26    1
    21     9    27    1
    22     9    28    1
    23    10    29    1
    24    10    30    1
    25    11    14   ar
    26    11    15   ar
    27    12    13    1
    28    13    17    1
    29    13    32    1
    30    13    33    1
    31    14    18   ar
    32    14    34    1
    33    15    19   ar
    34    15    35    1
    35    16    36    1
    36    16    37    1
    37    16    38    1
    38    17    39    1
    39    17    40    1
    40    17    41    1
    41    18    20   ar
    42    18    42    1
    43    19    20   ar
    44    19    43    1
    45    20    44    1
