@<TRIPOS>MOLECULE
7021854
 31 31 0 0 0
SMALL
GASTEIGER

@<TRIPOS>ATOM
      1 O          -1.8146    0.9009    1.5088 O.2     1  TYR1       -0.2741
      2 OH          4.6680   -2.1212   -0.3641 O.3     1  TYR1       -0.5068
      3 O          -4.2356   -0.0803   -0.9378 O.3     2  GLY2       -0.4795
      4 OXT        -4.8849   -2.0129    0.0578 O.2     2  GLY2       -0.2492
      5 N          -1.1896    2.9630   -0.4615 N.3     1  TYR1       -0.3197
      6 N          -1.6947   -0.3857   -0.4170 N.am    2  GLY2       -0.3036
      7 CA         -0.4614    1.6999   -0.3355 C.3     1  TYR1        0.0863
      8 CB          0.8176    1.9137    0.4872 C.3     1  TYR1       -0.0039
      9 CG          1.8485    0.8332    0.2591 C.ar    1  TYR1       -0.0452
     10 C          -1.3977    0.7205    0.3656 C.2     1  TYR1        0.2306
     11 CD1         1.8366   -0.2954    1.0618 C.ar    1  TYR1       -0.0551
     12 CD2         2.7857    0.9925   -0.7485 C.ar    1  TYR1       -0.0551
     13 CE1         2.7886   -1.2928    0.8512 C.ar    1  TYR1       -0.0199
     14 CE2         3.7377   -0.0050   -0.9592 C.ar    1  TYR1       -0.0199
     15 CA         -2.5436   -1.4535    0.0544 C.3     2  GLY2        0.1089
     16 CZ          3.7392   -1.1477   -0.1593 C.ar    1  TYR1        0.1169
     17 C          -3.9997   -1.2293   -0.2630 C.2     2  GLY2        0.3221
     18 HA         -0.2127    1.3498   -1.3439 H       1  TYR1        0.0557
     19 HB1         1.2802    2.8756    0.2238 H       1  TYR1        0.0333
     20 HB2         0.5969    1.9887    1.5606 H       1  TYR1        0.0333
     21 HD1         1.1015   -0.4178    1.8519 H       1  TYR1        0.0621
     22 HD2         2.7909    1.8775   -1.3783 H       1  TYR1        0.0621
     23 H1         -1.9981    2.8316   -1.0687 H       1  TYR1        0.1189
     24 H2         -0.5994    3.6540   -0.9235 H       1  TYR1        0.1189
     25 H          -1.3222   -0.4558   -1.3591 H       2  GLY2        0.1493
     26 HE1         2.7847   -2.1806    1.4777 H       1  TYR1        0.0654
     27 HE2         4.4724    0.1199   -1.7502 H       1  TYR1        0.0654
     28 HA1        -2.4338   -1.5543    1.1382 H       2  GLY2        0.0577
     29 HA2        -2.2160   -2.3704   -0.4436 H       2  GLY2        0.0577
     30 HH          5.2447   -1.8562   -1.1011 H       1  TYR1        0.2921
     31 H          -5.1892    0.0421   -1.1326 H       2  GLY2        0.2951
@<TRIPOS>BOND
     1     1    10    2
     2     2    16    1
     3     2    30    1
     4     3    17    1
     5     3    31    1
     6     4    17    2
     7     5     7    1
     8     5    23    1
     9     5    24    1
    10     6    10   am
    11     6    15    1
    12     6    25    1
    13     7     8    1
    14     7    10    1
    15     7    18    1
    16     8     9    1
    17     8    19    1
    18     8    20    1
    19     9    11   ar
    20     9    12   ar
    21    11    13   ar
    22    11    21    1
    23    12    14   ar
    24    12    22    1
    25    13    16   ar
    26    13    26    1
    27    14    16   ar
    28    14    27    1
    29    15    17    1
    30    15    28    1
    31    15    29    1
@<TRIPOS>MOLECULE
123715
 38 38 0 0 0
SMALL
GASTEIGER

@<TRIPOS>ATOM
      1 O           0.7260    2.3435    1.1763 O.2     1  TYR1       -0.2741
      2 OH          0.1557   -4.1489   -0.6971 O.3     1  TYR1       -0.5068
      3 O          -1.1392    0.0126   -1.4924 O.2     2  GLY2       -0.2741
      4 O          -2.9161    0.2978    1.6271 O.3     3  GLY3       -0.4795
      5 OXT        -4.6502   -1.0811    1.1382 O.2     3  GLY3       -0.2492
      6 N           0.6874    2.0470   -1.1234 N.am    2  GLY2       -0.3054
      7 N           3.5420    2.7844    0.5434 N.3     1  TYR1       -0.3197
      8 N          -2.8272    1.4177   -0.7317 N.am    3  GLY3       -0.3036
      9 CA          2.7617    1.6428    0.0645 C.3     1  TYR1        0.0863
     10 CB          3.0189    0.4216    0.9594 C.3     1  TYR1       -0.0039
     11 CG          2.2520   -0.8020    0.5156 C.ar    1  TYR1       -0.0452
     12 C           1.2946    2.0569    0.1238 C.2     1  TYR1        0.2306
     13 CD1         0.9835   -1.0286    1.0237 C.ar    1  TYR1       -0.0551
     14 CD2         2.8330   -1.6742   -0.3904 C.ar    1  TYR1       -0.0551
     15 CA         -0.7053    2.3816   -1.3016 C.3     2  GLY2        0.0882
     16 CE1         0.2761   -2.1590    0.6142 C.ar    1  TYR1       -0.0199
     17 CE2         2.1256   -2.8044   -0.7998 C.ar    1  TYR1       -0.0199
     18 CZ          0.8471   -3.0469   -0.2975 C.ar    1  TYR1        0.1169
     19 C          -1.5469    1.1290   -1.1816 C.2     2  GLY2        0.2306
     20 CA         -3.8563    0.4154   -0.5719 C.3     3  GLY3        0.1089
     21 C          -3.8626   -0.2055    0.8012 C.2     3  GLY3        0.3221
     22 HA          3.0609    1.4172   -0.9654 H       1  TYR1        0.0557
     23 HB1         4.0919    0.1855    0.9724 H       1  TYR1        0.0333
     24 HB2         2.7583    0.6437    2.0039 H       1  TYR1        0.0333
     25 H           1.2189    1.7753   -1.9448 H       2  GLY2        0.1492
     26 H1          3.4360    3.5654   -0.1034 H       1  TYR1        0.1189
     27 H2          4.5331    2.5463    0.5397 H       1  TYR1        0.1189
     28 HD1         0.5297   -0.3516    1.7410 H       1  TYR1        0.0621
     29 HD2         3.8271   -1.4922   -0.7887 H       1  TYR1        0.0621
     30 HA1        -1.0003    3.1290   -0.5585 H       2  GLY2        0.0558
     31 HA2        -0.8319    2.7982   -2.3051 H       2  GLY2        0.0558
     32 HE1        -0.7194   -2.3421    1.0093 H       1  TYR1        0.0654
     33 HE2         2.5812   -3.4879   -1.5112 H       1  TYR1        0.0654
     34 H          -3.0682    2.3761   -0.4965 H       3  GLY3        0.1493
     35 HA1        -4.8181    0.9084   -0.7378 H       3  GLY3        0.0577
     36 HA2        -3.7035   -0.3765   -1.3112 H       3  GLY3        0.0577
     37 HH          0.6999   -4.6503   -1.3285 H       1  TYR1        0.2921
     38 H          -2.9392   -0.1234    2.5126 H       3  GLY3        0.2951
@<TRIPOS>BOND
     1     1    12    2
     2     2    18    1
     3     2    37    1
     4     3    19    2
     5     4    21    1
     6     4    38    1
     7     5    21    2
     8     6    12   am
     9     6    15    1
    10     6    25    1
    11     7     9    1
    12     7    26    1
    13     7    27    1
    14     8    19   am
    15     8    20    1
    16     8    34    1
    17     9    10    1
    18     9    12    1
    19     9    22    1
    20    10    11    1
    21    10    23    1
    22    10    24    1
    23    11    13   ar
    24    11    14   ar
    25    13    16   ar
    26    13    28    1
    27    14    17   ar
    28    14    29    1
    29    15    19    1
    30    15    30    1
    31    15    31    1
    32    16    18   ar
    33    16    32    1
    34    17    18   ar
    35    17    33    1
    36    20    21    1
    37    20    35    1
    38    20    36    1
