@<TRIPOS>MOLECULE
4644453
 39 41 0 0 0
SMALL
GASTEIGER

@<TRIPOS>ATOM
      1 BR          5.2402   -1.5479    0.5430 Br      1  UNL1       -0.0465
      2 CL         -6.3040    1.5859   -1.3111 Cl      1  UNL1       -0.0835
      3 S          -1.0413   -0.2040    1.5604 S.O2    1  UNL1        0.0621
      4 S           0.1206   -2.0644   -2.1019 S.3     1  UNL1       -0.1342
      5 O          -0.1661    0.9484    1.6345 O.2     1  UNL1       -0.1528
      6 O          -1.4139   -0.9304    2.7574 O.2     1  UNL1       -0.1528
      7 O           5.3257    1.4693   -0.2499 O.3     1  UNL1       -0.4940
      8 N          -0.4280   -1.3027    0.4073 N.3     1  UNL1       -0.1585
      9 C           0.1386   -0.7264   -0.8554 C.3     1  UNL1        0.1024
     10 C          -1.2877   -2.4731    0.0812 C.3     1  UNL1        0.0311
     11 C          -0.5425   -3.2924   -0.9572 C.3     1  UNL1        0.0100
     12 C           1.5249   -0.1497   -0.6906 C.ar    1  UNL1       -0.0175
     13 C          -2.5274    0.3023    0.7512 C.ar    1  UNL1        0.1056
     14 C           2.5687   -0.9557   -0.2329 C.ar    1  UNL1       -0.0387
     15 C           1.7650    1.1910   -0.9962 C.ar    1  UNL1       -0.0527
     16 C          -3.6968   -0.4034    0.9793 C.ar    1  UNL1       -0.0340
     17 C          -2.4968    1.3953   -0.0986 C.ar    1  UNL1       -0.0340
     18 C           3.8487   -0.4224   -0.0812 C.ar    1  UNL1        0.0598
     19 C           3.0448    1.7243   -0.8446 C.ar    1  UNL1       -0.0185
     20 C           4.0867    0.9176   -0.3873 C.ar    1  UNL1        0.1340
     21 C          -4.8700   -0.0044    0.3390 C.ar    1  UNL1       -0.0415
     22 C          -3.6700    1.7945   -0.7389 C.ar    1  UNL1       -0.0415
     23 C          -4.8567    1.0946   -0.5201 C.ar    1  UNL1        0.0411
     24 C           5.6374    2.0539    1.0127 C.3     1  UNL1        0.0788
     25 H          -0.5377    0.0281   -1.2613 H       1  UNL1        0.0644
     26 H          -2.2459   -2.1626   -0.3438 H       1  UNL1        0.0452
     27 H          -1.4728   -3.0764    0.9750 H       1  UNL1        0.0452
     28 H           0.2916   -3.8374   -0.5041 H       1  UNL1        0.0390
     29 H          -1.1956   -4.0055   -1.4670 H       1  UNL1        0.0390
     30 H           2.3848   -1.9987    0.0152 H       1  UNL1        0.0633
     31 H           0.9636    1.8321   -1.3535 H       1  UNL1        0.0622
     32 H          -3.7286   -1.2623    1.6426 H       1  UNL1        0.0637
     33 H          -1.5864    1.9582   -0.2793 H       1  UNL1        0.0637
     34 H           3.2222    2.7689   -1.0856 H       1  UNL1        0.0654
     35 H          -5.7871   -0.5597    0.5181 H       1  UNL1        0.0633
     36 H          -3.6449    2.6532   -1.4050 H       1  UNL1        0.0633
     37 H           6.6981    2.3195    1.0143 H       1  UNL1        0.0660
     38 H           5.4506    1.3559    1.8345 H       1  UNL1        0.0660
     39 H           5.0494    2.9653    1.1595 H       1  UNL1        0.0660
@<TRIPOS>BOND
     1     1    18    1
     2     2    23    1
     3     3     5    2
     4     3     6    2
     5     3     8    1
     6     3    13    1
     7     4     9    1
     8     4    11    1
     9     7    20    1
    10     7    24    1
    11     8     9    1
    12     8    10    1
    13     9    12    1
    14     9    25    1
    15    10    11    1
    16    10    26    1
    17    10    27    1
    18    11    28    1
    19    11    29    1
    20    12    14   ar
    21    12    15   ar
    22    13    16   ar
    23    13    17   ar
    24    14    18   ar
    25    14    30    1
    26    15    19   ar
    27    15    31    1
    28    16    21   ar
    29    16    32    1
    30    17    22   ar
    31    17    33    1
    32    18    20   ar
    33    19    20   ar
    34    19    34    1
    35    21    23   ar
    36    21    35    1
    37    22    23   ar
    38    22    36    1
    39    24    37    1
    40    24    38    1
    41    24    39    1
