@<TRIPOS>MOLECULE
155804574
 64 70 0 0 0
SMALL
GASTEIGER

@<TRIPOS>ATOM
      1 O          -0.6621    3.3818   -0.5481 O.3     1  UNL1       -0.3704
      2 O           4.8308    1.2652    2.7577 O.3     1  UNL1       -0.5068
      3 N          -1.1852    1.1456    1.2450 N.3     1  UNL1       -0.3022
      4 N           0.4080   -2.8321   -0.7759 N.3     1  UNL1       -0.3012
      5 C           0.4741   -0.4141   -1.2921 C.3     1  UNL1        0.0165
      6 C           0.7846   -0.0918    0.2217 C.3     1  UNL1        0.0261
      7 C          -1.5919    1.1488   -1.1156 C.3     1  UNL1        0.0223
      8 C           0.0999    1.3187    0.5299 C.3     1  UNL1        0.0520
      9 C          -0.3353    2.0180   -0.7836 C.3     1  UNL1        0.1104
     10 C          -1.0680   -0.2879   -1.5315 C.3     1  UNL1       -0.0315
     11 C           1.0617   -1.8072   -1.6185 C.3     1  UNL1        0.0240
     12 C          -2.3056    1.1950    0.2684 C.3     1  UNL1        0.0416
     13 C           0.2399   -1.2525    1.1244 C.3     1  UNL1       -0.0281
     14 C           1.0761    0.6851   -2.1702 C.2     1  UNL1       -0.0766
     15 C           2.3171   -0.1019    0.4437 C.ar    1  UNL1       -0.0320
     16 C           0.6913    1.9290   -1.8712 C.2     1  UNL1       -0.0538
     17 C           2.6090   -1.7671   -1.4935 C.3     1  UNL1       -0.0109
     18 C          -2.4481    1.7729   -2.2290 C.3     1  UNL1       -0.0548
     19 C           0.6534   -2.6554    0.6567 C.3     1  UNL1       -0.0002
     20 C           3.1517   -0.9034   -0.3721 C.ar    1  UNL1       -0.0418
     21 C          -3.4340    0.2464    0.6441 C.ar    1  UNL1       -0.0298
     22 C           2.9070    0.5988    1.5110 C.ar    1  UNL1       -0.0161
     23 C           0.6919   -4.1995   -1.1996 C.3     1  UNL1       -0.0124
     24 C           4.5396   -0.9191   -0.1509 C.ar    1  UNL1       -0.0548
     25 C           0.4785    4.1300   -0.1503 C.3     1  UNL1        0.0377
     26 C          -3.6185   -0.1240    1.9760 C.ar    1  UNL1       -0.0571
     27 C          -4.2837   -0.2532   -0.3430 C.ar    1  UNL1       -0.0571
     28 C           4.2868    0.5675    1.7228 C.ar    1  UNL1        0.1172
     29 C           5.1040   -0.1823    0.8862 C.ar    1  UNL1       -0.0199
     30 C          -4.6526   -0.9941    2.3211 C.ar    1  UNL1       -0.0615
     31 C          -5.3179   -1.1233    0.0021 C.ar    1  UNL1       -0.0615
     32 C          -5.5023   -1.4938    1.3341 C.ar    1  UNL1       -0.0617
     33 H           0.7336    1.9506    1.1490 H       1  UNL1        0.0501
     34 H          -1.2734   -0.4607   -2.5976 H       1  UNL1        0.0281
     35 H          -1.6205   -1.0694   -1.0020 H       1  UNL1        0.0281
     36 H           0.8187   -2.0435   -2.6640 H       1  UNL1        0.0474
     37 H          -2.7548    2.1946    0.3756 H       1  UNL1        0.0516
     38 H          -0.8543   -1.2563    1.1390 H       1  UNL1        0.0287
     39 H           0.5551   -1.1133    2.1668 H       1  UNL1        0.0287
     40 H          -1.3061    1.9058    1.9150 H       1  UNL1        0.1229
     41 H           1.7366    0.4789   -3.0028 H       1  UNL1        0.0576
     42 H           1.0059    2.7696   -2.4775 H       1  UNL1        0.0598
     43 H           3.0208   -1.3770   -2.4341 H       1  UNL1        0.0329
     44 H           3.0177   -2.7788   -1.3945 H       1  UNL1        0.0329
     45 H          -3.0215    2.6337   -1.8692 H       1  UNL1        0.0237
     46 H          -3.1429    1.0650   -2.6836 H       1  UNL1        0.0237
     47 H          -1.8173    2.1304   -3.0510 H       1  UNL1        0.0237
     48 H           1.6984   -2.8588    0.9181 H       1  UNL1        0.0427
     49 H           0.0553   -3.3815    1.2225 H       1  UNL1        0.0427
     50 H           2.2924    1.1582    2.2106 H       1  UNL1        0.0657
     51 H           0.4817   -4.3291   -2.2669 H       1  UNL1        0.0391
     52 H           1.7274   -4.4995   -1.0109 H       1  UNL1        0.0391
     53 H           0.0392   -4.9020   -0.6689 H       1  UNL1        0.0391
     54 H           5.1870   -1.5199   -0.7855 H       1  UNL1        0.0622
     55 H           0.2795    5.1781   -0.3962 H       1  UNL1        0.0524
     56 H           0.5893    4.0840    0.9375 H       1  UNL1        0.0524
     57 H           1.4253    3.8592   -0.6232 H       1  UNL1        0.0524
     58 H          -2.9878    0.2567    2.7739 H       1  UNL1        0.0621
     59 H          -4.1877    0.0023   -1.3858 H       1  UNL1        0.0621
     60 H           6.1782   -0.2112    1.0457 H       1  UNL1        0.0654
     61 H          -4.7989   -1.2801    3.3587 H       1  UNL1        0.0618
     62 H          -5.9803   -1.5123   -0.7657 H       1  UNL1        0.0618
     63 H          -6.3081   -2.1706    1.6030 H       1  UNL1        0.0618
     64 H           4.1217    1.7296    3.2345 H       1  UNL1        0.2921
@<TRIPOS>BOND
     1     1     9    1
     2     1    25    1
     3     2    28    1
     4     2    64    1
     5     3     8    1
     6     3    12    1
     7     3    40    1
     8     4    11    1
     9     4    19    1
    10     4    23    1
    11     5     6    1
    12     5    10    1
    13     5    11    1
    14     5    14    1
    15     6     8    1
    16     6    13    1
    17     6    15    1
    18     7     9    1
    19     7    10    1
    20     7    12    1
    21     7    18    1
    22     8     9    1
    23     8    33    1
    24     9    16    1
    25    10    34    1
    26    10    35    1
    27    11    17    1
    28    11    36    1
    29    12    21    1
    30    12    37    1
    31    13    19    1
    32    13    38    1
    33    13    39    1
    34    14    16    2
    35    14    41    1
    36    15    20   ar
    37    15    22   ar
    38    16    42    1
    39    17    20    1
    40    17    43    1
    41    17    44    1
    42    18    45    1
    43    18    46    1
    44    18    47    1
    45    19    48    1
    46    19    49    1
    47    20    24   ar
    48    21    26   ar
    49    21    27   ar
    50    22    28   ar
    51    22    50    1
    52    23    51    1
    53    23    52    1
    54    23    53    1
    55    24    29   ar
    56    24    54    1
    57    25    55    1
    58    25    56    1
    59    25    57    1
    60    26    30   ar
    61    26    58    1
    62    27    31   ar
    63    27    59    1
    64    28    29   ar
    65    29    60    1
    66    30    32   ar
    67    30    61    1
    68    31    32   ar
    69    31    62    1
    70    32    63    1
