@<TRIPOS>MOLECULE
644073
 75 81 0 0 0
SMALL
GASTEIGER

@<TRIPOS>ATOM
      1 O           0.2206    2.8253    1.0947 O.3     1  UNL1       -0.4811
      2 O          -2.6302    2.2556    0.6636 O.3     1  UNL1       -0.3725
      3 O          -4.3841    0.6756    0.1098 O.3     1  UNL1       -0.3880
      4 O           2.0647    5.0125    0.5868 O.3     1  UNL1       -0.5033
      5 N           1.7418   -2.1213   -0.1002 N.3     1  UNL1       -0.2982
      6 C           0.2081   -0.2829   -0.7128 C.3     1  UNL1        0.0004
      7 C           0.6791    0.4885    0.5431 C.3     1  UNL1        0.0474
      8 C          -1.6335    1.3692    0.1764 C.3     1  UNL1        0.1120
      9 C          -0.3656    1.4844    1.0682 C.3     1  UNL1        0.1397
     10 C          -2.1341   -0.1118    0.2615 C.3     1  UNL1        0.0213
     11 C          -1.0668   -1.0832   -0.3256 C.3     1  UNL1       -0.0368
     12 C           1.4475   -1.1310   -1.1621 C.3     1  UNL1        0.0210
     13 C          -0.2871    0.6873   -1.8425 C.3     1  UNL1       -0.0423
     14 C          -1.2944    1.7038   -1.2853 C.3     1  UNL1       -0.0193
     15 C           1.1928   -0.4487    1.6571 C.3     1  UNL1       -0.0263
     16 C           1.7352    1.4232    0.1007 C.ar    1  UNL1        0.0115
     17 C           2.6940   -0.2153   -1.5163 C.3     1  UNL1       -0.0111
     18 C          -3.4990   -0.3418   -0.3939 C.3     1  UNL1        0.0737
     19 C           2.1841   -1.5072    1.1547 C.3     1  UNL1        0.0001
     20 C           2.7432    1.1183   -0.7987 C.ar    1  UNL1       -0.0383
     21 C           1.4553    2.7072    0.5064 C.ar    1  UNL1        0.1663
     22 C           2.6518   -3.1778   -0.5301 C.3     1  UNL1        0.0020
     23 C          -4.1379   -1.7467   -0.0503 C.3     1  UNL1       -0.0088
     24 C           2.7703   -4.2636    0.5258 C.3     1  UNL1       -0.0282
     25 C          -3.3644   -0.0933   -1.9084 C.3     1  UNL1       -0.0352
     26 C           3.6299    2.1443   -1.1231 C.ar    1  UNL1       -0.0546
     27 C           2.3101    3.7398    0.1885 C.ar    1  UNL1        0.1588
     28 C           3.6786   -5.4044    0.2539 C.3     1  UNL1       -0.0488
     29 C           4.0452   -4.3696    1.2770 C.3     1  UNL1       -0.0488
     30 C          -2.9665    1.9718    2.0153 C.3     1  UNL1        0.0373
     31 C           3.4264    3.4415   -0.6075 C.ar    1  UNL1       -0.0162
     32 C          -3.7109   -2.2569    1.3413 C.3     1  UNL1       -0.0574
     33 C          -3.7205   -2.8119   -1.0925 C.3     1  UNL1       -0.0574
     34 C          -5.6837   -1.6808   -0.0754 C.3     1  UNL1       -0.0574
     35 H          -0.5887    1.2468    2.1137 H       1  UNL1        0.0771
     36 H          -2.1882   -0.3604    1.3230 H       1  UNL1        0.0358
     37 H          -0.8355   -1.8555    0.4148 H       1  UNL1        0.0276
     38 H          -1.3746   -1.6281   -1.2146 H       1  UNL1        0.0276
     39 H           1.1663   -1.6849   -2.0679 H       1  UNL1        0.0471
     40 H          -0.7063    0.1163   -2.6756 H       1  UNL1        0.0272
     41 H           0.5337    1.2427   -2.3086 H       1  UNL1        0.0272
     42 H          -0.7777    2.6761   -1.2655 H       1  UNL1        0.0294
     43 H          -2.0990    1.9761   -1.9572 H       1  UNL1        0.0294
     44 H           0.3427   -0.9638    2.1231 H       1  UNL1        0.0287
     45 H           1.6717    0.1278    2.4600 H       1  UNL1        0.0287
     46 H           2.6289    0.0015   -2.5915 H       1  UNL1        0.0329
     47 H           3.6448   -0.7364   -1.3701 H       1  UNL1        0.0329
     48 H           3.1816   -1.0630    1.0503 H       1  UNL1        0.0427
     49 H           2.2637   -2.2505    1.9558 H       1  UNL1        0.0427
     50 H           2.2457   -3.6534   -1.4315 H       1  UNL1        0.0429
     51 H           3.6435   -2.7917   -0.7910 H       1  UNL1        0.0429
     52 H           1.8347   -4.5040    1.0158 H       1  UNL1        0.0313
     53 H          -2.5616   -0.5909   -2.4413 H       1  UNL1        0.0257
     54 H          -3.5114    0.9394   -2.2150 H       1  UNL1        0.0257
     55 H          -4.2698   -0.5049   -2.3807 H       1  UNL1        0.0257
     56 H           4.4466    1.9683   -1.8177 H       1  UNL1        0.0622
     57 H          -4.1842    1.5199   -0.3270 H       1  UNL1        0.2102
     58 H           4.2405   -5.4177   -0.6720 H       1  UNL1        0.0268
     59 H           3.3863   -6.3838    0.6123 H       1  UNL1        0.0268
     60 H           3.9932   -4.6524    2.3215 H       1  UNL1        0.0268
     61 H           4.8588   -3.6950    1.0411 H       1  UNL1        0.0268
     62 H          -2.2094    2.3606    2.7022 H       1  UNL1        0.0524
     63 H          -3.2227    0.9435    2.2654 H       1  UNL1        0.0524
     64 H          -3.8679    2.5574    2.2320 H       1  UNL1        0.0524
     65 H           4.1166    4.2339   -0.8883 H       1  UNL1        0.0655
     66 H          -4.2708   -3.1642    1.6020 H       1  UNL1        0.0236
     67 H          -2.6566   -2.5348    1.3996 H       1  UNL1        0.0236
     68 H          -3.9321   -1.5205    2.1215 H       1  UNL1        0.0236
     69 H          -2.6684   -3.0906   -1.0340 H       1  UNL1        0.0236
     70 H          -4.2611   -3.7475   -0.8920 H       1  UNL1        0.0236
     71 H          -3.9687   -2.5547   -2.1244 H       1  UNL1        0.0236
     72 H          -6.1271   -2.6721    0.0761 H       1  UNL1        0.0236
     73 H          -6.0731   -1.0353    0.7197 H       1  UNL1        0.0236
     74 H          -6.0532   -1.3008   -1.0338 H       1  UNL1        0.0236
     75 H           1.2454    5.0163    1.1118 H       1  UNL1        0.2923
@<TRIPOS>BOND
     1     1     9    1
     2     1    21    1
     3     2     8    1
     4     2    30    1
     5     3    18    1
     6     3    57    1
     7     4    27    1
     8     4    75    1
     9     5    12    1
    10     5    19    1
    11     5    22    1
    12     6     7    1
    13     6    11    1
    14     6    12    1
    15     6    13    1
    16     7     9    1
    17     7    15    1
    18     7    16    1
    19     8     9    1
    20     8    10    1
    21     8    14    1
    22     9    35    1
    23    10    11    1
    24    10    18    1
    25    10    36    1
    26    11    37    1
    27    11    38    1
    28    12    17    1
    29    12    39    1
    30    13    14    1
    31    13    40    1
    32    13    41    1
    33    14    42    1
    34    14    43    1
    35    15    19    1
    36    15    44    1
    37    15    45    1
    38    16    20   ar
    39    16    21   ar
    40    17    20    1
    41    17    46    1
    42    17    47    1
    43    18    23    1
    44    18    25    1
    45    19    48    1
    46    19    49    1
    47    20    26   ar
    48    21    27   ar
    49    22    24    1
    50    22    50    1
    51    22    51    1
    52    23    32    1
    53    23    33    1
    54    23    34    1
    55    24    28    1
    56    24    29    1
    57    24    52    1
    58    25    53    1
    59    25    54    1
    60    25    55    1
    61    26    31   ar
    62    26    56    1
    63    27    31   ar
    64    28    29    1
    65    28    58    1
    66    28    59    1
    67    29    60    1
    68    29    61    1
    69    30    62    1
    70    30    63    1
    71    30    64    1
    72    31    65    1
    73    32    66    1
    74    32    67    1
    75    32    68    1
    76    33    69    1
    77    33    70    1
    78    33    71    1
    79    34    72    1
    80    34    73    1
    81    34    74    1
