@<TRIPOS>MOLECULE
5361092
 53 57 0 0 0
SMALL
GASTEIGER

@<TRIPOS>ATOM
      1 O           1.0270    2.4019   -0.3371 O.3     1  UNL1       -0.3861
      2 O          -5.0625   -1.7952   -0.4517 O.3     1  UNL1       -0.5068
      3 N           1.6957   -0.2667   -0.8542 N.3     1  UNL1       -0.2960
      4 C          -0.9520    0.9727   -0.7225 C.3     1  UNL1        0.0275
      5 C           0.2120    1.3644    0.2424 C.3     1  UNL1        0.0914
      6 C           1.1045    0.1191    0.4511 C.3     1  UNL1        0.0440
      7 C          -0.3389    0.5085   -2.0735 C.3     1  UNL1       -0.0278
      8 C          -1.8234    2.2374   -0.9676 C.3     1  UNL1       -0.0406
      9 C          -0.3199    1.9740    1.5602 C.3     1  UNL1       -0.0217
     10 C          -1.7436   -0.2282   -0.1583 C.ar    1  UNL1       -0.0317
     11 C           0.7202   -0.5921   -1.8983 C.3     1  UNL1        0.0002
     12 C           0.3124   -0.9924    1.1682 C.3     1  UNL1       -0.0090
     13 C          -2.3522    2.8536    0.3300 C.3     1  UNL1       -0.0521
     14 C          -1.2259    3.1813    1.3050 C.3     1  UNL1       -0.0504
     15 C          -1.1209   -1.1511    0.7136 C.ar    1  UNL1       -0.0418
     16 C           2.7243   -1.2962   -0.7470 C.3     1  UNL1        0.0021
     17 C           3.7212   -0.9457    0.2821 C.3     1  UNL1       -0.0282
     18 C           4.4594    0.3883    0.0462 C.3     1  UNL1       -0.0490
     19 C           5.0890   -1.6424    0.1248 C.3     1  UNL1       -0.0490
     20 C          -3.0714   -0.4817   -0.5506 C.ar    1  UNL1       -0.0161
     21 C           5.7313   -0.3115    0.5687 C.3     1  UNL1       -0.0525
     22 C          -1.8447   -2.2512    1.2056 C.ar    1  UNL1       -0.0548
     23 C          -3.7761   -1.5828   -0.0599 C.ar    1  UNL1        0.1172
     24 C          -3.1654   -2.4641    0.8227 C.ar    1  UNL1       -0.0199
     25 H           1.9055    0.4500    1.1196 H       1  UNL1        0.0494
     26 H           0.1266    1.3612   -2.5855 H       1  UNL1        0.0287
     27 H          -1.1217    0.1442   -2.7517 H       1  UNL1        0.0287
     28 H          -2.6606    2.0328   -1.6431 H       1  UNL1        0.0275
     29 H          -1.2240    2.9997   -1.4843 H       1  UNL1        0.0275
     30 H           0.5224    2.3055    2.1808 H       1  UNL1        0.0294
     31 H          -0.8810    1.2448    2.1531 H       1  UNL1        0.0294
     32 H           0.2341   -1.5547   -1.6982 H       1  UNL1        0.0427
     33 H           1.2374   -0.7074   -2.8594 H       1  UNL1        0.0427
     34 H           0.2905   -0.7610    2.2419 H       1  UNL1        0.0329
     35 H           0.8282   -1.9553    1.0858 H       1  UNL1        0.0329
     36 H          -3.0637    2.1718    0.8096 H       1  UNL1        0.0266
     37 H          -2.9072    3.7698    0.0971 H       1  UNL1        0.0266
     38 H          -0.6314    4.0130    0.9074 H       1  UNL1        0.0266
     39 H          -1.6503    3.5280    2.2542 H       1  UNL1        0.0266
     40 H           2.2873   -2.2801   -0.5373 H       1  UNL1        0.0429
     41 H           3.2089   -1.3899   -1.7280 H       1  UNL1        0.0429
     42 H           3.3688   -1.0647    1.3170 H       1  UNL1        0.0313
     43 H           1.5805    2.0060   -1.0306 H       1  UNL1        0.2103
     44 H           4.1224    1.2412    0.6413 H       1  UNL1        0.0268
     45 H           4.5379    0.6986   -1.0028 H       1  UNL1        0.0268
     46 H           5.3534   -1.9299   -0.8998 H       1  UNL1        0.0268
     47 H           5.2675   -2.4945    0.7862 H       1  UNL1        0.0268
     48 H          -3.5711    0.1750   -1.2565 H       1  UNL1        0.0657
     49 H           6.6639   -0.0416    0.0674 H       1  UNL1        0.0265
     50 H           5.8686   -0.2269    1.6529 H       1  UNL1        0.0265
     51 H          -1.3733   -2.9531    1.8897 H       1  UNL1        0.0622
     52 H          -3.7077   -3.3222    1.2096 H       1  UNL1        0.0654
     53 H          -5.3282   -1.0881   -1.0645 H       1  UNL1        0.2921
@<TRIPOS>BOND
     1     1     5    1
     2     1    43    1
     3     2    23    1
     4     2    53    1
     5     3     6    1
     6     3    11    1
     7     3    16    1
     8     4     5    1
     9     4     7    1
    10     4     8    1
    11     4    10    1
    12     5     6    1
    13     5     9    1
    14     6    12    1
    15     6    25    1
    16     7    11    1
    17     7    26    1
    18     7    27    1
    19     8    13    1
    20     8    28    1
    21     8    29    1
    22     9    14    1
    23     9    30    1
    24     9    31    1
    25    10    15   ar
    26    10    20   ar
    27    11    32    1
    28    11    33    1
    29    12    15    1
    30    12    34    1
    31    12    35    1
    32    13    14    1
    33    13    36    1
    34    13    37    1
    35    14    38    1
    36    14    39    1
    37    15    22   ar
    38    16    17    1
    39    16    40    1
    40    16    41    1
    41    17    18    1
    42    17    19    1
    43    17    42    1
    44    18    21    1
    45    18    44    1
    46    18    45    1
    47    19    21    1
    48    19    46    1
    49    19    47    1
    50    20    23   ar
    51    20    48    1
    52    21    49    1
    53    21    50    1
    54    22    24   ar
    55    22    51    1
    56    23    24   ar
    57    24    52    1
@<TRIPOS>MOLECULE
634464
 77 81 0 0 0
SMALL
GASTEIGER

@<TRIPOS>ATOM
      1 SI          1.5706   -3.3732    0.8659 Si      1  UNL1        0.0000
      2 SI         -5.6409    1.0246   -0.4198 Si      1  UNL1        0.0000
      3 O           0.4905   -2.2882    0.2025 O.3     1  UNL1        0.0000
      4 O          -4.6469    1.0041    0.9270 O.3     1  UNL1        0.0000
      5 N           2.2828    0.9784    0.0272 N.3     1  UNL1        0.0000
      6 C          -0.2117   -0.2386   -0.9255 C.3     1  UNL1        0.0000
      7 C           0.9936   -1.0894   -0.4153 C.3     1  UNL1        0.0000
      8 C           1.7542   -0.2555    0.6434 C.3     1  UNL1        0.0000
      9 C           0.3201    1.1117   -1.4927 C.3     1  UNL1        0.0000
     10 C          -0.9572   -1.0305   -2.0394 C.3     1  UNL1        0.0000
     11 C           1.9133   -1.5572   -1.5652 C.3     1  UNL1        0.0000
     12 C          -1.1382    0.1116    0.2616 C.ar    1  UNL1        0.0000
     13 C           0.8448   -0.0490    1.8785 C.3     1  UNL1        0.0000
     14 C           1.2493    1.8574   -0.5229 C.3     1  UNL1        0.0000
     15 C          -0.0496   -1.5619   -3.1526 C.3     1  UNL1        0.0000
     16 C           1.1391   -2.3479   -2.6186 C.3     1  UNL1        0.0000
     17 C          -0.6117    0.2183    1.5698 C.ar    1  UNL1        0.0000
     18 C           3.2017    1.7126    0.8905 C.3     1  UNL1        0.0000
     19 C           3.9228    2.7962    0.1159 C.3     1  UNL1        0.0000
     20 C          -2.5030    0.3960    0.0703 C.ar    1  UNL1        0.0000
     21 C           5.2530    3.2633    0.7428 C.3     1  UNL1        0.0000
     22 C           4.7528    2.2935   -1.0835 C.3     1  UNL1        0.0000
     23 C          -1.4566    0.5585    2.6404 C.ar    1  UNL1        0.0000
     24 C           5.8120    3.3455   -0.6930 C.3     1  UNL1        0.0000
     25 C          -3.3291    0.7392    1.1427 C.ar    1  UNL1        0.0000
     26 C          -2.8076    0.8161    2.4278 C.ar    1  UNL1        0.0000
     27 C           0.6201   -4.8287    1.5928 C.3     1  UNL1        0.0000
     28 C           2.5759   -2.5872    2.2481 C.3     1  UNL1        0.0000
     29 C           2.7572   -4.0437   -0.4306 C.3     1  UNL1        0.0000
     30 C          -5.0243    2.2454   -1.7096 C.3     1  UNL1        0.0000
     31 C          -7.4101    1.4636    0.0404 C.3     1  UNL1        0.0000
     32 C          -5.6666   -0.6852   -1.2191 C.3     1  UNL1        0.0000
     33 H           2.6713   -0.7448    0.9157 H       1  UNL1        0.0000
     34 H           0.8655    0.9552   -2.4297 H       1  UNL1        0.0000
     35 H          -0.5188    1.7719   -1.7513 H       1  UNL1        0.0000
     36 H          -1.7195   -0.4044   -2.5184 H       1  UNL1        0.0000
     37 H          -1.4910   -1.8805   -1.5930 H       1  UNL1        0.0000
     38 H           2.8666   -1.9749   -1.2806 H       1  UNL1        0.0000
     39 H           2.2701   -0.6604   -2.0924 H       1  UNL1        0.0000
     40 H           0.7966   -0.9184    2.5216 H       1  UNL1        0.0000
     41 H           1.2308    0.7598    2.5082 H       1  UNL1        0.0000
     42 H           1.6885    2.6716   -1.1086 H       1  UNL1        0.0000
     43 H           0.6654    2.3343    0.2735 H       1  UNL1        0.0000
     44 H          -0.6373   -2.2015   -3.8220 H       1  UNL1        0.0000
     45 H           0.3098   -0.7300   -3.7691 H       1  UNL1        0.0000
     46 H           1.8075   -2.6028   -3.4491 H       1  UNL1        0.0000
     47 H           0.7486   -3.2896   -2.2242 H       1  UNL1        0.0000
     48 H           3.9403    1.0144    1.3050 H       1  UNL1        0.0000
     49 H           2.6855    2.1672    1.7440 H       1  UNL1        0.0000
     50 H           3.2916    3.6617   -0.1289 H       1  UNL1        0.0000
     51 H          -2.8978    0.3564   -0.9352 H       1  UNL1        0.0000
     52 H           5.7634    2.5184    1.3645 H       1  UNL1        0.0000
     53 H           5.2146    4.2103    1.2878 H       1  UNL1        0.0000
     54 H           5.1152    1.2619   -0.9981 H       1  UNL1        0.0000
     55 H           4.2975    2.4284   -2.0683 H       1  UNL1        0.0000
     56 H          -1.0583    0.6275    3.6501 H       1  UNL1        0.0000
     57 H           6.8541    3.0413   -0.8170 H       1  UNL1        0.0000
     58 H           5.6630    4.3208   -1.1703 H       1  UNL1        0.0000
     59 H          -3.4448    1.0814    3.2667 H       1  UNL1        0.0000
     60 H           0.0395   -5.3325    0.8147 H       1  UNL1        0.0000
     61 H          -0.0690   -4.4844    2.3695 H       1  UNL1        0.0000
     62 H           1.3069   -5.5551    2.0370 H       1  UNL1        0.0000
     63 H           2.0295   -2.1573    3.0842 H       1  UNL1        0.0000
     64 H           3.4454   -1.9900    1.9708 H       1  UNL1        0.0000
     65 H           3.0585   -3.4562    2.7224 H       1  UNL1        0.0000
     66 H           2.3388   -4.2589   -1.4109 H       1  UNL1        0.0000
     67 H           3.0751   -5.0273   -0.0577 H       1  UNL1        0.0000
     68 H           3.6961   -3.4878   -0.5027 H       1  UNL1        0.0000
     69 H          -5.7284    2.3020   -2.5453 H       1  UNL1        0.0000
     70 H          -4.0498    1.9561   -2.1107 H       1  UNL1        0.0000
     71 H          -4.9322    3.2448   -1.2739 H       1  UNL1        0.0000
     72 H          -7.4534    2.4600    0.4900 H       1  UNL1        0.0000
     73 H          -7.8094    0.7438    0.7609 H       1  UNL1        0.0000
     74 H          -8.0525    1.4572   -0.8451 H       1  UNL1        0.0000
     75 H          -4.6859   -0.9596   -1.6157 H       1  UNL1        0.0000
     76 H          -6.3837   -0.7044   -2.0453 H       1  UNL1        0.0000
     77 H          -5.9665   -1.4407   -0.4869 H       1  UNL1        0.0000
@<TRIPOS>BOND
     1     1     3    1
     2     1    27    1
     3     1    28    1
     4     1    29    1
     5     2     4    1
     6     2    30    1
     7     2    31    1
     8     2    32    1
     9     3     7    1
    10     4    25    1
    11     5     8    1
    12     5    14    1
    13     5    18    1
    14     6     7    1
    15     6     9    1
    16     6    10    1
    17     6    12    1
    18     7     8    1
    19     7    11    1
    20     8    13    1
    21     8    33    1
    22     9    14    1
    23     9    34    1
    24     9    35    1
    25    10    15    1
    26    10    36    1
    27    10    37    1
    28    11    16    1
    29    11    38    1
    30    11    39    1
    31    12    17   ar
    32    12    20   ar
    33    13    17    1
    34    13    40    1
    35    13    41    1
    36    14    42    1
    37    14    43    1
    38    15    16    1
    39    15    44    1
    40    15    45    1
    41    16    46    1
    42    16    47    1
    43    17    23   ar
    44    18    19    1
    45    18    48    1
    46    18    49    1
    47    19    21    1
    48    19    22    1
    49    19    50    1
    50    20    25   ar
    51    20    51    1
    52    21    24    1
    53    21    52    1
    54    21    53    1
    55    22    24    1
    56    22    54    1
    57    22    55    1
    58    23    26   ar
    59    23    56    1
    60    24    57    1
    61    24    58    1
    62    25    26   ar
    63    26    59    1
    64    27    60    1
    65    27    61    1
    66    27    62    1
    67    28    63    1
    68    28    64    1
    69    28    65    1
    70    29    66    1
    71    29    67    1
    72    29    68    1
    73    30    69    1
    74    30    70    1
    75    30    71    1
    76    31    72    1
    77    31    73    1
    78    31    74    1
    79    32    75    1
    80    32    76    1
    81    32    77    1
@<TRIPOS>MOLECULE
631259
 65 69 0 0 0
SMALL
GASTEIGER

@<TRIPOS>ATOM
      1 SI         -0.6194   -3.0650    1.3135 Si      1  UNL1        0.0000
      2 O          -1.1275   -1.8343    0.3081 O.3     1  UNL1        0.0000
      3 O          -4.7450    3.0748   -0.4484 O.3     1  UNL1        0.0000
      4 N           1.7449    0.5296    0.0350 N.3     1  UNL1        0.0000
      5 C          -0.8718    0.0634   -1.2085 C.3     1  UNL1        0.0000
      6 C          -0.1423   -1.0248   -0.3596 C.3     1  UNL1        0.0000
      7 C           0.7235   -0.3038    0.7012 C.3     1  UNL1        0.0000
      8 C           0.1886    1.0125   -1.8425 C.3     1  UNL1        0.0000
      9 C          -1.7011   -0.6351   -2.3257 C.3     1  UNL1        0.0000
     10 C           0.6854   -1.9953   -1.2318 C.3     1  UNL1        0.0000
     11 C          -1.7540    0.9353   -0.2854 C.ar    1  UNL1        0.0000
     12 C          -0.2020    0.4397    1.6940 C.3     1  UNL1        0.0000
     13 C           1.1891    1.5778   -0.8229 C.3     1  UNL1        0.0000
     14 C          -0.9126   -1.6525   -3.1556 C.3     1  UNL1        0.0000
     15 C          -0.1777   -2.6708   -2.2960 C.3     1  UNL1        0.0000
     16 C          -1.4038    1.1163    1.0727 C.ar    1  UNL1        0.0000
     17 C           2.7458    1.0665    0.9508 C.3     1  UNL1        0.0000
     18 C           3.9128    1.6666    0.1959 C.3     1  UNL1        0.0000
     19 C          -2.8807    1.6201   -0.7771 C.ar    1  UNL1        0.0000
     20 C           4.6542    0.6878   -0.7382 C.3     1  UNL1        0.0000
     21 C           5.2232    1.7676    1.0042 C.3     1  UNL1        0.0000
     22 C          -2.1990    1.9282    1.9001 C.ar    1  UNL1        0.0000
     23 C           5.9626    1.3726   -0.2911 C.3     1  UNL1        0.0000
     24 C          -3.6577    2.4287    0.0551 C.ar    1  UNL1        0.0000
     25 C          -3.3200    2.5794    1.3940 C.ar    1  UNL1        0.0000
     26 C          -2.1253   -3.9377    2.0356 C.3     1  UNL1        0.0000
     27 C           0.4109   -2.4064    2.7428 C.3     1  UNL1        0.0000
     28 C           0.3989   -4.3412    0.3796 C.3     1  UNL1        0.0000
     29 H           1.3520   -1.0096    1.2124 H       1  UNL1        0.0000
     30 H          -0.3068    1.8518   -2.3491 H       1  UNL1        0.0000
     31 H           0.7578    0.4974   -2.6239 H       1  UNL1        0.0000
     32 H          -2.1114    0.1044   -3.0239 H       1  UNL1        0.0000
     33 H          -2.5628   -1.1484   -1.8780 H       1  UNL1        0.0000
     34 H           1.3720   -2.6448   -0.7113 H       1  UNL1        0.0000
     35 H           1.4131   -1.3960   -1.7981 H       1  UNL1        0.0000
     36 H           0.3667    1.1788    2.2687 H       1  UNL1        0.0000
     37 H          -0.6508   -0.2156    2.4295 H       1  UNL1        0.0000
     38 H           1.9708    2.0614   -1.4178 H       1  UNL1        0.0000
     39 H           0.7209    2.3725   -0.2298 H       1  UNL1        0.0000
     40 H          -0.1946   -1.1316   -3.7992 H       1  UNL1        0.0000
     41 H          -1.5996   -2.1756   -3.8317 H       1  UNL1        0.0000
     42 H          -0.9352   -3.3264   -1.8588 H       1  UNL1        0.0000
     43 H           0.4543   -3.2967   -2.9365 H       1  UNL1        0.0000
     44 H           2.3227    1.8279    1.6163 H       1  UNL1        0.0000
     45 H           3.1127    0.2566    1.5945 H       1  UNL1        0.0000
     46 H           3.6834    2.6285   -0.2831 H       1  UNL1        0.0000
     47 H          -3.1671    1.5434   -1.8220 H       1  UNL1        0.0000
     48 H           4.4188    0.7738   -1.8023 H       1  UNL1        0.0000
     49 H           4.5960   -0.3676   -0.4457 H       1  UNL1        0.0000
     50 H           5.3342    1.0307    1.8083 H       1  UNL1        0.0000
     51 H           5.4625    2.7586    1.3992 H       1  UNL1        0.0000
     52 H          -1.9409    2.0581    2.9486 H       1  UNL1        0.0000
     53 H           6.8260    0.7148   -0.1656 H       1  UNL1        0.0000
     54 H           6.2495    2.2272   -0.9146 H       1  UNL1        0.0000
     55 H          -3.9162    3.2044    2.0530 H       1  UNL1        0.0000
     56 H          -1.8187   -4.7493    2.7017 H       1  UNL1        0.0000
     57 H          -2.7366   -3.2333    2.6073 H       1  UNL1        0.0000
     58 H          -2.7415   -4.3599    1.2365 H       1  UNL1        0.0000
     59 H           0.4733   -3.2742    3.4181 H       1  UNL1        0.0000
     60 H           1.4675   -2.2063    2.5607 H       1  UNL1        0.0000
     61 H          -0.0453   -1.6595    3.3883 H       1  UNL1        0.0000
     62 H           1.4770   -4.1617    0.4158 H       1  UNL1        0.0000
     63 H           0.2811   -5.2791    0.9401 H       1  UNL1        0.0000
     64 H           0.0650   -4.5933   -0.6241 H       1  UNL1        0.0000
     65 H          -5.1640    3.5892    0.2629 H       1  UNL1        0.0000
@<TRIPOS>BOND
     1     1     2    1
     2     1    26    1
     3     1    27    1
     4     1    28    1
     5     2     6    1
     6     3    24    1
     7     3    65    1
     8     4     7    1
     9     4    13    1
    10     4    17    1
    11     5     6    1
    12     5     8    1
    13     5     9    1
    14     5    11    1
    15     6     7    1
    16     6    10    1
    17     7    12    1
    18     7    29    1
    19     8    13    1
    20     8    30    1
    21     8    31    1
    22     9    14    1
    23     9    32    1
    24     9    33    1
    25    10    15    1
    26    10    34    1
    27    10    35    1
    28    11    16   ar
    29    11    19   ar
    30    12    16    1
    31    12    36    1
    32    12    37    1
    33    13    38    1
    34    13    39    1
    35    14    15    1
    36    14    40    1
    37    14    41    1
    38    15    42    1
    39    15    43    1
    40    16    22   ar
    41    17    18    1
    42    17    44    1
    43    17    45    1
    44    18    20    1
    45    18    21    1
    46    18    46    1
    47    19    24   ar
    48    19    47    1
    49    20    23    1
    50    20    48    1
    51    20    49    1
    52    21    23    1
    53    21    50    1
    54    21    51    1
    55    22    25   ar
    56    22    52    1
    57    23    53    1
    58    23    54    1
    59    24    25   ar
    60    25    55    1
    61    26    56    1
    62    26    57    1
    63    26    58    1
    64    27    59    1
    65    27    60    1
    66    27    61    1
    67    28    62    1
    68    28    63    1
    69    28    64    1
@<TRIPOS>MOLECULE
129318767
 54 58 0 0 0
SMALL
GASTEIGER

@<TRIPOS>ATOM
      1 O           0.5564   -2.6841    0.0967 O.3     1  UNL1       -0.3821
      2 O           2.3914   -1.1570    1.2489 O.co2   1  UNL1       -0.7749
      3 O          -4.8545    2.3281    0.6313 O.3     1  UNL1       -0.5068
      4 N           1.6492   -0.0643    0.8400 N.3     1  UNL1        0.2218
      5 C          -1.1823   -1.0088    0.6212 C.3     1  UNL1        0.0349
      6 C          -0.0901   -1.4926   -0.3817 C.3     1  UNL1        0.1181
      7 C           0.9593   -0.3615   -0.5244 C.3     1  UNL1        0.0127
      8 C          -0.5078   -0.7409    1.9975 C.3     1  UNL1       -0.0001
      9 C           0.6367    0.2708    1.9156 C.3     1  UNL1       -0.0314
     10 C          -2.2249   -2.1531    0.7915 C.3     1  UNL1       -0.0403
     11 C          -0.7086   -1.9380   -1.7307 C.3     1  UNL1       -0.0178
     12 C           0.3133    0.8667   -1.1916 C.3     1  UNL1        0.0185
     13 C          -1.8030    0.3247    0.1501 C.ar    1  UNL1       -0.0313
     14 C           2.6394    1.0639    0.7245 C.3     1  UNL1       -0.0294
     15 C          -2.8373   -2.6041   -0.5367 C.3     1  UNL1       -0.0521
     16 C          -1.7692   -3.0250   -1.5405 C.3     1  UNL1       -0.0502
     17 C          -1.0731    1.2000   -0.6875 C.ar    1  UNL1       -0.0379
     18 C           3.7067    0.7664   -0.3080 C.3     1  UNL1       -0.0008
     19 C           4.7593    1.8770   -0.5595 C.3     1  UNL1       -0.0454
     20 C           4.8876   -0.1278    0.1513 C.3     1  UNL1       -0.0454
     21 C          -3.0712    0.7410    0.5965 C.ar    1  UNL1       -0.0161
     22 C           5.7987    0.7501   -0.7314 C.3     1  UNL1       -0.0522
     23 C          -1.6434    2.4177   -1.0976 C.ar    1  UNL1       -0.0547
     24 C          -3.6215    1.9578    0.1883 C.ar    1  UNL1        0.1172
     25 C          -2.9111    2.7930   -0.6640 C.ar    1  UNL1       -0.0199
     26 H           1.7659   -0.7528   -1.1521 H       1  UNL1        0.0882
     27 H          -0.1258   -1.6778    2.4217 H       1  UNL1        0.0326
     28 H          -1.2474   -0.3705    2.7196 H       1  UNL1        0.0326
     29 H           0.2731    1.2829    1.7127 H       1  UNL1        0.0814
     30 H           1.1896    0.2953    2.8624 H       1  UNL1        0.0814
     31 H          -3.0247   -1.8779    1.4869 H       1  UNL1        0.0275
     32 H          -1.7386   -3.0240    1.2524 H       1  UNL1        0.0275
     33 H           0.0778   -2.3372   -2.3840 H       1  UNL1        0.0295
     34 H          -1.1726   -1.1050   -2.2676 H       1  UNL1        0.0295
     35 H           0.2228    0.6624   -2.2670 H       1  UNL1        0.0369
     36 H           0.9455    1.7545   -1.1251 H       1  UNL1        0.0369
     37 H           2.0895    1.9811    0.5015 H       1  UNL1        0.0816
     38 H           3.0789    1.1882    1.7229 H       1  UNL1        0.0816
     39 H          -3.4451   -1.7988   -0.9649 H       1  UNL1        0.0266
     40 H          -3.5164   -3.4454   -0.3564 H       1  UNL1        0.0266
     41 H          -1.2953   -3.9541   -1.2015 H       1  UNL1        0.0266
     42 H          -2.2397   -3.2499   -2.5047 H       1  UNL1        0.0266
     43 H           3.3117    0.4673   -1.2859 H       1  UNL1        0.0352
     44 H           1.1058   -2.4548    0.8625 H       1  UNL1        0.2105
     45 H           4.5906    2.5038   -1.4390 H       1  UNL1        0.0270
     46 H           4.9524    2.5225    0.3055 H       1  UNL1        0.0270
     47 H           5.1257   -0.0649    1.2195 H       1  UNL1        0.0270
     48 H           4.8315   -1.1799   -0.1404 H       1  UNL1        0.0270
     49 H          -3.6435    0.1220    1.2812 H       1  UNL1        0.0657
     50 H           5.8938    0.3908   -1.7625 H       1  UNL1        0.0266
     51 H           6.7945    0.9558   -0.3313 H       1  UNL1        0.0266
     52 H          -1.0920    3.0844   -1.7567 H       1  UNL1        0.0622
     53 H          -3.3336    3.7402   -0.9872 H       1  UNL1        0.0654
     54 H          -5.2047    1.6317    1.2130 H       1  UNL1        0.2921
@<TRIPOS>UNITY_ATOM_ATTR
2 1
charge -1
4 1
charge 1
@<TRIPOS>BOND
     1     1     6    1
     2     1    44    1
     3     2     4    1
     4     3    24    1
     5     3    54    1
     6     4     7    1
     7     4     9    1
     8     4    14    1
     9     5     6    1
    10     5     8    1
    11     5    10    1
    12     5    13    1
    13     6     7    1
    14     6    11    1
    15     7    12    1
    16     7    26    1
    17     8     9    1
    18     8    27    1
    19     8    28    1
    20     9    29    1
    21     9    30    1
    22    10    15    1
    23    10    31    1
    24    10    32    1
    25    11    16    1
    26    11    33    1
    27    11    34    1
    28    12    17    1
    29    12    35    1
    30    12    36    1
    31    13    17   ar
    32    13    21   ar
    33    14    18    1
    34    14    37    1
    35    14    38    1
    36    15    16    1
    37    15    39    1
    38    15    40    1
    39    16    41    1
    40    16    42    1
    41    17    23   ar
    42    18    19    1
    43    18    20    1
    44    18    43    1
    45    19    22    1
    46    19    45    1
    47    19    46    1
    48    20    22    1
    49    20    47    1
    50    20    48    1
    51    21    24   ar
    52    21    49    1
    53    22    50    1
    54    22    51    1
    55    23    25   ar
    56    23    52    1
    57    24    25   ar
    58    25    53    1
@<TRIPOS>MOLECULE
13080261
 56 60 0 0 0
SMALL
GASTEIGER

@<TRIPOS>ATOM
      1 O           1.5247    2.3641   -0.3299 O.3     1  UNL1       -0.3861
      2 O          -4.9918   -1.1328   -0.4669 O.3     1  UNL1       -0.4951
      3 N           1.8944   -0.3595   -0.8611 N.3     1  UNL1       -0.2960
      4 C          -0.6000    1.1646   -0.7229 C.3     1  UNL1        0.0275
      5 C           0.5996    1.4200    0.2442 C.3     1  UNL1        0.0914
      6 C           1.3487    0.0825    0.4463 C.3     1  UNL1        0.0440
      7 C          -0.0412    0.6425   -2.0763 C.3     1  UNL1       -0.0278
      8 C          -1.3259    2.5192   -0.9613 C.3     1  UNL1       -0.0406
      9 C           0.1377    2.0779    1.5651 C.3     1  UNL1       -0.0217
     10 C          -1.5200    0.0557   -0.1650 C.ar    1  UNL1       -0.0317
     11 C           0.8896   -0.5695   -1.9069 C.3     1  UNL1        0.0002
     12 C           0.4379   -0.9382    1.1576 C.3     1  UNL1       -0.0090
     13 C          -1.7841    3.1834    0.3396 C.3     1  UNL1       -0.0521
     14 C          -0.6291    3.3794    1.3162 C.3     1  UNL1       -0.0504
     15 C          -1.0037   -0.9350    0.7021 C.ar    1  UNL1       -0.0418
     16 C           2.8026   -1.4970   -0.7592 C.3     1  UNL1        0.0021
     17 C           3.8477   -1.2500    0.2912 C.3     1  UNL1       -0.0282
     18 C          -2.8673   -0.0472   -0.5587 C.ar    1  UNL1       -0.0159
     19 C           4.7249   -0.0033    0.0535 C.3     1  UNL1       -0.0490
     20 C           5.1328   -2.0895    0.1352 C.3     1  UNL1       -0.0490
     21 C           5.9143   -0.8347    0.5773 C.3     1  UNL1       -0.0525
     22 C          -1.8452   -1.9508    1.1881 C.ar    1  UNL1       -0.0548
     23 C          -3.6900   -1.0660   -0.0738 C.ar    1  UNL1        0.1204
     24 C          -3.1812   -2.0142    0.8042 C.ar    1  UNL1       -0.0197
     25 C          -5.7752   -2.2016    0.0614 C.3     1  UNL1        0.0788
     26 H           2.1806    0.3200    1.1164 H       1  UNL1        0.0494
     27 H           0.5160    1.4411   -2.5837 H       1  UNL1        0.0287
     28 H          -0.8591    0.3706   -2.7564 H       1  UNL1        0.0287
     29 H          -2.1805    2.4113   -1.6375 H       1  UNL1        0.0275
     30 H          -0.6460    3.2133   -1.4743 H       1  UNL1        0.0275
     31 H           1.0111    2.3109    2.1873 H       1  UNL1        0.0294
     32 H          -0.5011    1.4121    2.1541 H       1  UNL1        0.0294
     33 H           0.2999   -1.4734   -1.7119 H       1  UNL1        0.0427
     34 H           1.3915   -0.7363   -2.8684 H       1  UNL1        0.0427
     35 H           0.4412   -0.7115    2.2324 H       1  UNL1        0.0329
     36 H           0.8442   -1.9518    1.0701 H       1  UNL1        0.0329
     37 H          -2.5669    2.5819    0.8155 H       1  UNL1        0.0266
     38 H          -2.2344    4.1564    0.1114 H       1  UNL1        0.0266
     39 H           0.0539    4.1422    0.9230 H       1  UNL1        0.0266
     40 H          -1.0132    3.7660    2.2672 H       1  UNL1        0.0266
     41 H           2.2665   -2.4294   -0.5456 H       1  UNL1        0.0429
     42 H           3.2836   -1.6392   -1.7358 H       1  UNL1        0.0429
     43 H           3.4761   -1.3317    1.3226 H       1  UNL1        0.0313
     44 H           2.0314    1.9129   -1.0255 H       1  UNL1        0.2103
     45 H          -3.2983    0.6611   -1.2602 H       1  UNL1        0.0657
     46 H           4.4801    0.8815    0.6470 H       1  UNL1        0.0268
     47 H           4.8351    0.2947   -0.9962 H       1  UNL1        0.0268
     48 H           5.3634   -2.4049   -0.8893 H       1  UNL1        0.0268
     49 H           5.2188   -2.9551    0.7976 H       1  UNL1        0.0268
     50 H           6.8705   -0.6672    0.0757 H       1  UNL1        0.0265
     51 H           6.0598   -0.7637    1.6614 H       1  UNL1        0.0265
     52 H          -1.4537   -2.7034    1.8688 H       1  UNL1        0.0622
     53 H          -3.7619   -2.8295    1.2212 H       1  UNL1        0.0654
     54 H          -6.7821   -2.1017   -0.3572 H       1  UNL1        0.0660
     55 H          -5.8733   -2.1291    1.1499 H       1  UNL1        0.0660
     56 H          -5.3924   -3.1772   -0.2570 H       1  UNL1        0.0660
@<TRIPOS>BOND
     1     1     5    1
     2     1    44    1
     3     2    23    1
     4     2    25    1
     5     3     6    1
     6     3    11    1
     7     3    16    1
     8     4     5    1
     9     4     7    1
    10     4     8    1
    11     4    10    1
    12     5     6    1
    13     5     9    1
    14     6    12    1
    15     6    26    1
    16     7    11    1
    17     7    27    1
    18     7    28    1
    19     8    13    1
    20     8    29    1
    21     8    30    1
    22     9    14    1
    23     9    31    1
    24     9    32    1
    25    10    15   ar
    26    10    18   ar
    27    11    33    1
    28    11    34    1
    29    12    15    1
    30    12    35    1
    31    12    36    1
    32    13    14    1
    33    13    37    1
    34    13    38    1
    35    14    39    1
    36    14    40    1
    37    15    22   ar
    38    16    17    1
    39    16    41    1
    40    16    42    1
    41    17    19    1
    42    17    20    1
    43    17    43    1
    44    18    23   ar
    45    18    45    1
    46    19    21    1
    47    19    46    1
    48    19    47    1
    49    20    21    1
    50    20    48    1
    51    20    49    1
    52    21    50    1
    53    21    51    1
    54    22    24   ar
    55    22    52    1
    56    23    24   ar
    57    24    53    1
    58    25    54    1
    59    25    55    1
    60    25    56    1
@<TRIPOS>MOLECULE
57257006
 55 59 0 0 0
SMALL
GASTEIGER

@<TRIPOS>ATOM
      1 O           1.3376   -2.4282    0.0563 O.3     1  UNL1       -0.3861
      2 O          -3.2374   -3.1314    0.3061 O.2     1  UNL1       -0.2974
      3 O          -4.5890    1.8813    0.9337 O.3     1  UNL1       -0.4951
      4 N           2.1207    0.2458    0.0570 N.3     1  UNL1       -0.2960
      5 C          -0.4987   -0.9176    0.6648 C.3     1  UNL1        0.0341
      6 C           0.4190   -1.4573   -0.4795 C.3     1  UNL1        0.0922
      7 C           1.2492   -0.2714   -1.0262 C.3     1  UNL1        0.0440
      8 C           0.4092   -0.3174    1.7754 C.3     1  UNL1       -0.0274
      9 C          -0.3991   -2.1947   -1.5690 C.3     1  UNL1       -0.0150
     10 C          -1.2863   -2.1104    1.2633 C.3     1  UNL1        0.0182
     11 C          -1.3983    0.2235    0.1425 C.ar    1  UNL1       -0.0313
     12 C           1.4021    0.7251    1.2396 C.3     1  UNL1        0.0002
     13 C           0.3217    0.7748   -1.6776 C.3     1  UNL1       -0.0090
     14 C          -0.9796    1.0217   -0.9475 C.ar    1  UNL1       -0.0418
     15 C           3.1048    1.2213   -0.4005 C.3     1  UNL1        0.0021
     16 C          -1.2322   -3.3370   -0.9932 C.3     1  UNL1        0.0085
     17 C           4.3585    1.1728    0.4602 C.3     1  UNL1       -0.0282
     18 C          -2.0450   -2.8561    0.1857 C.2     1  UNL1        0.1344
     19 C           5.0958   -0.1826    0.4508 C.3     1  UNL1       -0.0490
     20 C           5.6174    1.7754   -0.1974 C.3     1  UNL1       -0.0490
     21 C          -2.6155    0.5475    0.7696 C.ar    1  UNL1       -0.0159
     22 C           6.4129    0.6211    0.4471 C.3     1  UNL1       -0.0525
     23 C          -1.7958    2.0709   -1.4048 C.ar    1  UNL1       -0.0548
     24 C          -3.4132    1.5973    0.3087 C.ar    1  UNL1        0.1204
     25 C          -3.0066    2.3556   -0.7813 C.ar    1  UNL1       -0.0197
     26 C          -5.3521    2.9700    0.4163 C.3     1  UNL1        0.0788
     27 H           1.9209   -0.6633   -1.8026 H       1  UNL1        0.0494
     28 H           0.9812   -1.1196    2.2614 H       1  UNL1        0.0287
     29 H          -0.1981    0.1423    2.5661 H       1  UNL1        0.0287
     30 H           0.2790   -2.6128   -2.3234 H       1  UNL1        0.0298
     31 H          -1.0745   -1.5133   -2.0965 H       1  UNL1        0.0298
     32 H          -1.9823   -1.8069    2.0508 H       1  UNL1        0.0351
     33 H          -0.6079   -2.8360    1.7303 H       1  UNL1        0.0351
     34 H           0.8813    1.6679    1.0325 H       1  UNL1        0.0427
     35 H           2.1063    0.9409    2.0514 H       1  UNL1        0.0427
     36 H           0.0707    0.4304   -2.6899 H       1  UNL1        0.0329
     37 H           0.8502    1.7265   -1.8079 H       1  UNL1        0.0329
     38 H           2.6945    2.2388   -0.4170 H       1  UNL1        0.0429
     39 H           3.3896    0.9941   -1.4364 H       1  UNL1        0.0429
     40 H          -0.5961   -4.1622   -0.6560 H       1  UNL1        0.0342
     41 H          -1.9086   -3.7267   -1.7613 H       1  UNL1        0.0342
     42 H           4.2044    1.5638    1.4752 H       1  UNL1        0.0313
     43 H           1.9309   -2.7057   -0.6625 H       1  UNL1        0.2103
     44 H           4.9345   -0.8177    1.3259 H       1  UNL1        0.0268
     45 H           4.9524   -0.7834   -0.4554 H       1  UNL1        0.0268
     46 H           5.6288    1.7511   -1.2934 H       1  UNL1        0.0268
     47 H           5.8920    2.7797    0.1358 H       1  UNL1        0.0268
     48 H          -2.9607   -0.0043    1.6388 H       1  UNL1        0.0657
     49 H           6.7928    0.8515    1.4491 H       1  UNL1        0.0265
     50 H           7.2233    0.2053   -0.1565 H       1  UNL1        0.0265
     51 H          -1.4825    2.6746   -2.2536 H       1  UNL1        0.0622
     52 H          -3.5756    3.1817   -1.1930 H       1  UNL1        0.0654
     53 H          -6.2529    3.0550    1.0330 H       1  UNL1        0.0660
     54 H          -5.6844    2.7772   -0.6094 H       1  UNL1        0.0660
     55 H          -4.8126    3.9190    0.5067 H       1  UNL1        0.0660
@<TRIPOS>BOND
     1     1     6    1
     2     1    43    1
     3     2    18    2
     4     3    24    1
     5     3    26    1
     6     4     7    1
     7     4    12    1
     8     4    15    1
     9     5     6    1
    10     5     8    1
    11     5    10    1
    12     5    11    1
    13     6     7    1
    14     6     9    1
    15     7    13    1
    16     7    27    1
    17     8    12    1
    18     8    28    1
    19     8    29    1
    20     9    16    1
    21     9    30    1
    22     9    31    1
    23    10    18    1
    24    10    32    1
    25    10    33    1
    26    11    14   ar
    27    11    21   ar
    28    12    34    1
    29    12    35    1
    30    13    14    1
    31    13    36    1
    32    13    37    1
    33    14    23   ar
    34    15    17    1
    35    15    38    1
    36    15    39    1
    37    16    18    1
    38    16    40    1
    39    16    41    1
    40    17    19    1
    41    17    20    1
    42    17    42    1
    43    19    22    1
    44    19    44    1
    45    19    45    1
    46    20    22    1
    47    20    46    1
    48    20    47    1
    49    21    24   ar
    50    21    48    1
    51    22    49    1
    52    22    50    1
    53    23    25   ar
    54    23    51    1
    55    24    25   ar
    56    25    52    1
    57    26    53    1
    58    26    54    1
    59    26    55    1
@<TRIPOS>MOLECULE
71314360
 53 57 0 0 0
SMALL
GASTEIGER

@<TRIPOS>ATOM
      1 O          -0.8778   -2.4933   -0.0313 O.3     1  UNL1       -0.3861
      2 O           4.8124    2.1132   -1.0859 O.3     1  UNL1       -0.5068
      3 N          -1.7674    0.1610   -0.0549 N.3     1  UNL1       -0.2960
      4 C           0.8839   -0.8952   -0.7021 C.3     1  UNL1        0.0275
      5 C           0.0079   -1.4672    0.4577 C.3     1  UNL1        0.0914
      6 C          -0.8602   -0.3167    1.0181 C.3     1  UNL1        0.0440
      7 C          -0.0590   -0.3367   -1.8043 C.3     1  UNL1       -0.0278
      8 C           1.7235   -2.0625   -1.2948 C.3     1  UNL1       -0.0406
      9 C           0.8702   -2.1724    1.5301 C.3     1  UNL1       -0.0217
     10 C           1.7362    0.2930   -0.2028 C.ar    1  UNL1       -0.0317
     11 C          -1.0903    0.6620   -1.2539 C.3     1  UNL1        0.0002
     12 C           0.0337    0.7665    1.6540 C.3     1  UNL1       -0.0090
     13 C           2.5784   -2.7722   -0.2418 C.3     1  UNL1       -0.0521
     14 C           1.7386   -3.2790    0.9261 C.3     1  UNL1       -0.0504
     15 C           1.3049    1.0730    0.8951 C.ar    1  UNL1       -0.0418
     16 C          -2.7823    1.0984    0.4145 C.3     1  UNL1        0.0021
     17 C          -4.0483    0.9926   -0.4230 C.3     1  UNL1       -0.0282
     18 C           2.9162    0.6795   -0.8655 C.ar    1  UNL1       -0.0161
     19 C          -4.7289   -0.3917   -0.3919 C.3     1  UNL1       -0.0490
     20 C          -5.3189    1.5476    0.2535 C.3     1  UNL1       -0.0490
     21 C          -6.0778    0.3574   -0.3693 C.3     1  UNL1       -0.0525
     22 C           2.0784    2.1639    1.3287 C.ar    1  UNL1       -0.0548
     23 C           3.6708    1.7702   -0.4283 C.ar    1  UNL1        0.1172
     24 C           3.2557    2.5086    0.6722 C.ar    1  UNL1       -0.0199
     25 H          -1.5040   -0.7335    1.8050 H       1  UNL1        0.0494
     26 H           0.5166    0.1461   -2.6047 H       1  UNL1        0.0287
     27 H          -0.6028   -1.1651   -2.2784 H       1  UNL1        0.0287
     28 H           1.0502   -2.8070   -1.7417 H       1  UNL1        0.0275
     29 H           2.3615   -1.7295   -2.1202 H       1  UNL1        0.0275
     30 H           0.2233   -2.6234    2.2931 H       1  UNL1        0.0294
     31 H           1.5280   -1.4703    2.0526 H       1  UNL1        0.0294
     32 H          -0.6092    1.6287   -1.0615 H       1  UNL1        0.0427
     33 H          -1.8178    0.8409   -2.0542 H       1  UNL1        0.0427
     34 H           0.3226    0.4308    2.6589 H       1  UNL1        0.0329
     35 H          -0.5342    1.6931    1.7995 H       1  UNL1        0.0329
     36 H           3.0993   -3.6174   -0.7067 H       1  UNL1        0.0266
     37 H           3.3550   -2.0957    0.1330 H       1  UNL1        0.0266
     38 H           1.1020   -4.1046    0.5851 H       1  UNL1        0.0266
     39 H           2.3961   -3.6921    1.6997 H       1  UNL1        0.0266
     40 H          -3.0392    0.8670    1.4567 H       1  UNL1        0.0429
     41 H          -2.4137    2.1319    0.4175 H       1  UNL1        0.0429
     42 H          -3.9285    1.3827   -1.4431 H       1  UNL1        0.0313
     43 H          -1.4541   -2.7674    0.7024 H       1  UNL1        0.2103
     44 H          -4.5448   -0.9798    0.5152 H       1  UNL1        0.0268
     45 H          -4.5573   -1.0257   -1.2659 H       1  UNL1        0.0268
     46 H          -5.6404    2.5376   -0.0808 H       1  UNL1        0.0268
     47 H          -5.3097    1.5305    1.3497 H       1  UNL1        0.0268
     48 H           3.2570    0.1375   -1.7428 H       1  UNL1        0.0657
     49 H          -6.4846    0.5651   -1.3656 H       1  UNL1        0.0265
     50 H          -6.8594   -0.0871    0.2516 H       1  UNL1        0.0265
     51 H           1.7575    2.7551    2.1834 H       1  UNL1        0.0622
     52 H           3.8382    3.3575    1.0187 H       1  UNL1        0.0654
     53 H           4.9513    1.4950   -1.8237 H       1  UNL1        0.2921
@<TRIPOS>BOND
     1     1     5    1
     2     1    43    1
     3     2    23    1
     4     2    53    1
     5     3     6    1
     6     3    11    1
     7     3    16    1
     8     4     5    1
     9     4     7    1
    10     4     8    1
    11     4    10    1
    12     5     6    1
    13     5     9    1
    14     6    12    1
    15     6    25    1
    16     7    11    1
    17     7    26    1
    18     7    27    1
    19     8    13    1
    20     8    28    1
    21     8    29    1
    22     9    14    1
    23     9    30    1
    24     9    31    1
    25    10    15   ar
    26    10    18   ar
    27    11    32    1
    28    11    33    1
    29    12    15    1
    30    12    34    1
    31    12    35    1
    32    13    14    1
    33    13    36    1
    34    13    37    1
    35    14    38    1
    36    14    39    1
    37    15    22   ar
    38    16    17    1
    39    16    40    1
    40    16    41    1
    41    17    19    1
    42    17    20    1
    43    17    42    1
    44    18    23   ar
    45    18    48    1
    46    19    21    1
    47    19    44    1
    48    19    45    1
    49    20    21    1
    50    20    46    1
    51    20    47    1
    52    21    49    1
    53    21    50    1
    54    22    24   ar
    55    22    51    1
    56    23    24   ar
    57    24    52    1
@<TRIPOS>MOLECULE
57088644
 52 56 0 0 0
SMALL
GASTEIGER

@<TRIPOS>ATOM
      1 O           0.8446   -2.4264   -0.0120 O.3     1  UNL1       -0.3861
      2 O          -3.7782   -2.5955    0.2847 O.2     1  UNL1       -0.2974
      3 O          -4.5233    2.5191    1.0802 O.3     1  UNL1       -0.5068
      4 N           1.9370    0.1360    0.0561 N.3     1  UNL1       -0.2960
      5 C          -0.7941   -0.7305    0.6681 C.3     1  UNL1        0.0341
      6 C           0.0407   -1.3382   -0.5052 C.3     1  UNL1        0.0922
      7 C           0.9985   -0.2415   -1.0289 C.3     1  UNL1        0.0440
      8 C           0.1906   -0.2757    1.7823 C.3     1  UNL1       -0.0274
      9 C          -0.8707   -1.9404   -1.6037 C.3     1  UNL1       -0.0150
     10 C          -1.7099   -1.8407    1.2427 C.3     1  UNL1        0.0182
     11 C          -1.5590    0.5239    0.1931 C.ar    1  UNL1       -0.0313
     12 C           1.2931    0.6593    1.2629 C.3     1  UNL1        0.0002
     13 C           0.1933    0.9260   -1.6352 C.3     1  UNL1       -0.0090
     14 C          -1.0616    1.3010   -0.8790 C.ar    1  UNL1       -0.0418
     15 C           3.0238    1.0030   -0.3869 C.3     1  UNL1        0.0021
     16 C          -1.8259   -2.9944   -1.0497 C.3     1  UNL1        0.0085
     17 C           4.2727    0.7811    0.4533 C.3     1  UNL1       -0.0282
     18 C          -2.5631   -2.4584    0.1549 C.2     1  UNL1        0.1344
     19 C           4.8452   -0.6505    0.3930 C.3     1  UNL1       -0.0490
     20 C           5.5863    1.2520   -0.2048 C.3     1  UNL1       -0.0490
     21 C          -2.7225    0.9689    0.8475 C.ar    1  UNL1       -0.0161
     22 C           6.2477   -0.0071    0.3935 C.3     1  UNL1       -0.0525
     23 C          -1.7537    2.4524   -1.2929 C.ar    1  UNL1       -0.0548
     24 C          -3.3962    2.1188    0.4297 C.ar    1  UNL1        0.1172
     25 C          -2.9154    2.8576   -0.6434 C.ar    1  UNL1       -0.0199
     26 H           1.6106   -0.6852   -1.8264 H       1  UNL1        0.0494
     27 H           0.6695   -1.1542    2.2359 H       1  UNL1        0.0287
     28 H          -0.3495    0.2273    2.5952 H       1  UNL1        0.0287
     29 H          -0.2550   -2.4114   -2.3802 H       1  UNL1        0.0298
     30 H          -1.4670   -1.1684   -2.1008 H       1  UNL1        0.0298
     31 H          -2.3561   -1.4832    2.0496 H       1  UNL1        0.0351
     32 H          -1.1161   -2.6551    1.6774 H       1  UNL1        0.0351
     33 H           0.8846    1.6626    1.0915 H       1  UNL1        0.0427
     34 H           2.0269    0.7656    2.0702 H       1  UNL1        0.0427
     35 H          -0.1078    0.6450   -2.6534 H       1  UNL1        0.0329
     36 H           0.8287    1.8127   -1.7452 H       1  UNL1        0.0329
     37 H           3.2682    0.7763   -1.4332 H       1  UNL1        0.0429
     38 H           2.7360    2.0617   -0.3672 H       1  UNL1        0.0429
     39 H          -1.2875   -3.8986   -0.7464 H       1  UNL1        0.0342
     40 H          -2.5520   -3.2781   -1.8188 H       1  UNL1        0.0342
     41 H           4.1772    1.1558    1.4816 H       1  UNL1        0.0313
     42 H           1.3930   -2.7491   -0.7474 H       1  UNL1        0.2103
     43 H           4.6219   -1.2019   -0.5283 H       1  UNL1        0.0268
     44 H           4.6202   -1.2892    1.2512 H       1  UNL1        0.0268
     45 H           5.9809    2.2064    0.1539 H       1  UNL1        0.0268
     46 H           5.5824    1.2607   -1.3011 H       1  UNL1        0.0268
     47 H          -3.1138    0.4297    1.7049 H       1  UNL1        0.0657
     48 H           6.9966   -0.4961   -0.2342 H       1  UNL1        0.0265
     49 H           6.6633    0.1459    1.3960 H       1  UNL1        0.0265
     50 H          -1.3819    3.0423   -2.1276 H       1  UNL1        0.0622
     51 H          -3.4349    3.7524   -0.9744 H       1  UNL1        0.0654
     52 H          -4.7147    1.8919    1.7983 H       1  UNL1        0.2921
@<TRIPOS>BOND
     1     1     6    1
     2     1    42    1
     3     2    18    2
     4     3    24    1
     5     3    52    1
     6     4     7    1
     7     4    12    1
     8     4    15    1
     9     5     6    1
    10     5     8    1
    11     5    10    1
    12     5    11    1
    13     6     7    1
    14     6     9    1
    15     7    13    1
    16     7    26    1
    17     8    12    1
    18     8    27    1
    19     8    28    1
    20     9    16    1
    21     9    29    1
    22     9    30    1
    23    10    18    1
    24    10    31    1
    25    10    32    1
    26    11    14   ar
    27    11    21   ar
    28    12    33    1
    29    12    34    1
    30    13    14    1
    31    13    35    1
    32    13    36    1
    33    14    23   ar
    34    15    17    1
    35    15    37    1
    36    15    38    1
    37    16    18    1
    38    16    39    1
    39    16    40    1
    40    17    19    1
    41    17    20    1
    42    17    41    1
    43    19    22    1
    44    19    43    1
    45    19    44    1
    46    20    22    1
    47    20    45    1
    48    20    46    1
    49    21    24   ar
    50    21    47    1
    51    22    48    1
    52    22    49    1
    53    23    25   ar
    54    23    50    1
    55    24    25   ar
    56    25    51    1
@<TRIPOS>MOLECULE
71750031
 62 67 0 0 0
SMALL
GASTEIGER

@<TRIPOS>ATOM
      1 O           1.2522    2.4117    0.0273 O.3     1  UNL1       -0.3861
      2 O          -3.1046    1.2377    0.4757 O.3     1  UNL1       -0.3463
      3 O          -2.9790    3.2700   -0.6835 O.3     1  UNL1       -0.3463
      4 O          -3.5922   -3.0938   -1.0017 O.3     1  UNL1       -0.4951
      5 N           2.5364   -0.0730   -0.0486 N.3     1  UNL1       -0.2960
      6 C          -0.2680    0.5677   -0.6028 C.3     1  UNL1        0.0323
      7 C           0.5492    1.2601    0.5348 C.3     1  UNL1        0.0917
      8 C           1.6007    0.2541    1.0559 C.3     1  UNL1        0.0440
      9 C          -1.3042    1.5964   -1.1481 C.3     1  UNL1        0.0138
     10 C           0.7186    0.1852   -1.7438 C.3     1  UNL1       -0.0276
     11 C          -0.3707    1.8216    1.6420 C.3     1  UNL1       -0.0168
     12 C          -2.2075    2.2201   -0.0681 C.3     1  UNL1        0.1711
     13 C          -0.8887   -0.7584   -0.1099 C.ar    1  UNL1       -0.0315
     14 C           1.9093   -0.6495   -1.2412 C.3     1  UNL1        0.0002
     15 C          -1.3877    2.8178    1.0776 C.3     1  UNL1        0.0041
     16 C           0.9021   -0.9532    1.7119 C.3     1  UNL1       -0.0090
     17 C          -0.3144   -1.4621    0.9733 C.ar    1  UNL1       -0.0418
     18 C           3.6903   -0.8576    0.3779 C.3     1  UNL1        0.0021
     19 C           4.8986   -0.5539   -0.4830 C.3     1  UNL1       -0.0282
     20 C          -1.9798   -1.3483   -0.7759 C.ar    1  UNL1       -0.0159
     21 C           5.4086    0.9105   -0.4732 C.3     1  UNL1       -0.0490
     22 C           6.2818   -0.9478    0.0973 C.3     1  UNL1       -0.0490
     23 C          -0.8807   -2.6750    1.4027 C.ar    1  UNL1       -0.0548
     24 C           6.8378    0.3354   -0.5542 C.3     1  UNL1       -0.0525
     25 C          -4.3781    1.5515   -0.0836 C.3     1  UNL1        0.0744
     26 C          -4.3194    3.0430   -0.2519 C.3     1  UNL1        0.0744
     27 C          -2.5273   -2.5581   -0.3444 C.ar    1  UNL1        0.1204
     28 C          -1.9837   -3.2173    0.7501 C.ar    1  UNL1       -0.0197
     29 C          -4.0995   -4.3346   -0.5126 C.3     1  UNL1        0.0788
     30 H           2.1986    0.7608    1.8263 H       1  UNL1        0.0494
     31 H          -0.7702    2.4152   -1.6517 H       1  UNL1        0.0326
     32 H          -1.9247    1.1564   -1.9371 H       1  UNL1        0.0326
     33 H           0.2033   -0.3673   -2.5402 H       1  UNL1        0.0287
     34 H           1.1123    1.0967   -2.2137 H       1  UNL1        0.0287
     35 H           0.2308    2.3420    2.3981 H       1  UNL1        0.0295
     36 H          -0.9138    1.0286    2.1659 H       1  UNL1        0.0295
     37 H           1.5902   -1.6829   -1.0587 H       1  UNL1        0.0427
     38 H           2.6312   -0.6978   -2.0645 H       1  UNL1        0.0427
     39 H          -2.0552    3.1371    1.8881 H       1  UNL1        0.0318
     40 H          -0.8765    3.7264    0.7352 H       1  UNL1        0.0318
     41 H           0.5796   -0.6641    2.7210 H       1  UNL1        0.0329
     42 H           1.6141   -1.7757    1.8488 H       1  UNL1        0.0329
     43 H           3.4764   -1.9338    0.3729 H       1  UNL1        0.0429
     44 H           3.9414   -0.6054    1.4166 H       1  UNL1        0.0429
     45 H           1.8041    2.7670    0.7448 H       1  UNL1        0.2103
     46 H           4.7844   -0.9403   -1.5064 H       1  UNL1        0.0313
     47 H          -2.4190   -0.8755   -1.6496 H       1  UNL1        0.0657
     48 H           5.2110    1.4578    0.4563 H       1  UNL1        0.0268
     49 H           5.0991    1.5271   -1.3211 H       1  UNL1        0.0268
     50 H           6.7022   -1.8862   -0.2737 H       1  UNL1        0.0268
     51 H           6.3392   -0.9411    1.1921 H       1  UNL1        0.0268
     52 H          -0.4516   -3.2074    2.2486 H       1  UNL1        0.0622
     53 H           7.1973    0.1897   -1.5793 H       1  UNL1        0.0265
     54 H           7.5993    0.8693    0.0194 H       1  UNL1        0.0265
     55 H          -5.1834    1.2195    0.5761 H       1  UNL1        0.0584
     56 H          -4.4643    1.0388   -1.0476 H       1  UNL1        0.0584
     57 H          -5.0328    3.4262   -0.9854 H       1  UNL1        0.0584
     58 H          -4.4637    3.5634    0.7011 H       1  UNL1        0.0584
     59 H          -2.3584   -4.1569    1.1408 H       1  UNL1        0.0654
     60 H          -4.9425   -4.6139   -1.1531 H       1  UNL1        0.0660
     61 H          -4.4908   -4.2358    0.5056 H       1  UNL1        0.0660
     62 H          -3.3559   -5.1345   -0.5960 H       1  UNL1        0.0660
@<TRIPOS>BOND
     1     1     7    1
     2     1    45    1
     3     2    12    1
     4     2    25    1
     5     3    12    1
     6     3    26    1
     7     4    27    1
     8     4    29    1
     9     5     8    1
    10     5    14    1
    11     5    18    1
    12     6     7    1
    13     6     9    1
    14     6    10    1
    15     6    13    1
    16     7     8    1
    17     7    11    1
    18     8    16    1
    19     8    30    1
    20     9    12    1
    21     9    31    1
    22     9    32    1
    23    10    14    1
    24    10    33    1
    25    10    34    1
    26    11    15    1
    27    11    35    1
    28    11    36    1
    29    12    15    1
    30    13    17   ar
    31    13    20   ar
    32    14    37    1
    33    14    38    1
    34    15    39    1
    35    15    40    1
    36    16    17    1
    37    16    41    1
    38    16    42    1
    39    17    23   ar
    40    18    19    1
    41    18    43    1
    42    18    44    1
    43    19    21    1
    44    19    22    1
    45    19    46    1
    46    20    27   ar
    47    20    47    1
    48    21    24    1
    49    21    48    1
    50    21    49    1
    51    22    24    1
    52    22    50    1
    53    22    51    1
    54    23    28   ar
    55    23    52    1
    56    24    53    1
    57    24    54    1
    58    25    26    1
    59    25    55    1
    60    25    56    1
    61    26    57    1
    62    26    58    1
    63    27    28   ar
    64    28    59    1
    65    29    60    1
    66    29    61    1
    67    29    62    1
@<TRIPOS>MOLECULE
625439
 56 60 0 0 0
SMALL
GASTEIGER

@<TRIPOS>ATOM
      1 O           0.0689    1.3006    2.0326 O.3     1  UNL1       -0.3861
      2 O          -5.1986   -0.7108   -0.4380 O.3     1  UNL1       -0.4951
      3 N           1.7860   -0.3367   -0.8243 N.3     1  UNL1       -0.2960
      4 C          -0.6387    1.2483   -0.3372 C.3     1  UNL1        0.0275
      5 C           0.5482    1.2013    0.6787 C.3     1  UNL1        0.0914
      6 C           1.2399   -0.1777    0.5381 C.3     1  UNL1        0.0440
      7 C          -0.0953    0.9723   -1.7736 C.3     1  UNL1       -0.0278
      8 C          -1.3030    2.6565   -0.2995 C.3     1  UNL1       -0.0406
      9 C           1.5393    2.3702    0.4853 C.3     1  UNL1       -0.0217
     10 C          -1.6367    0.1145   -0.0133 C.ar    1  UNL1       -0.0317
     11 C           0.7686   -0.2924   -1.8750 C.3     1  UNL1        0.0002
     12 C           0.2601   -1.2876    0.9945 C.3     1  UNL1       -0.0090
     13 C          -0.3185    3.8234   -0.4266 C.3     1  UNL1       -0.0521
     14 C           0.8471    3.7312    0.5477 C.3     1  UNL1       -0.0504
     15 C          -1.1843   -1.0809    0.5926 C.ar    1  UNL1       -0.0418
     16 C           2.6539   -1.5004   -0.9719 C.3     1  UNL1        0.0021
     17 C           3.7163   -1.5216    0.0801 C.3     1  UNL1       -0.0282
     18 C          -2.9963    0.2079   -0.3634 C.ar    1  UNL1       -0.0159
     19 C           4.6597   -0.3008    0.0754 C.3     1  UNL1       -0.0490
     20 C           4.9509   -2.3807   -0.2638 C.3     1  UNL1       -0.0490
     21 C           5.8054   -1.2815    0.4014 C.3     1  UNL1       -0.0525
     22 C          -2.0940   -2.1173    0.8645 C.ar    1  UNL1       -0.0548
     23 C          -3.8873   -0.8326   -0.0924 C.ar    1  UNL1        0.1204
     24 C          -3.4378   -1.9929    0.5249 C.ar    1  UNL1       -0.0197
     25 C          -6.0539   -1.8122   -0.1370 C.3     1  UNL1        0.0788
     26 H           2.0569   -0.1663    1.2675 H       1  UNL1        0.0494
     27 H           0.5133    1.8149   -2.1211 H       1  UNL1        0.0287
     28 H          -0.9251    0.8908   -2.4882 H       1  UNL1        0.0287
     29 H          -1.8524    2.7735    0.6446 H       1  UNL1        0.0275
     30 H          -2.0414    2.7616   -1.1034 H       1  UNL1        0.0275
     31 H           2.0696    2.2914   -0.4704 H       1  UNL1        0.0294
     32 H           2.3062    2.3436    1.2700 H       1  UNL1        0.0294
     33 H           0.1362   -1.1882   -1.8589 H       1  UNL1        0.0427
     34 H           1.2554   -0.2825   -2.8586 H       1  UNL1        0.0427
     35 H           0.2840   -1.3300    2.0926 H       1  UNL1        0.0329
     36 H           0.5962   -2.2724    0.6525 H       1  UNL1        0.0329
     37 H          -0.8547    4.7654   -0.2607 H       1  UNL1        0.0266
     38 H           0.0683    3.8730   -1.4509 H       1  UNL1        0.0266
     39 H           1.5725    4.5240    0.3325 H       1  UNL1        0.0266
     40 H           0.4814    3.9095    1.5663 H       1  UNL1        0.0266
     41 H           2.0842   -2.4371   -0.9509 H       1  UNL1        0.0429
     42 H           3.1176   -1.4536   -1.9663 H       1  UNL1        0.0429
     43 H           3.3535   -1.7875    1.0830 H       1  UNL1        0.0313
     44 H           0.8332    1.2295    2.6297 H       1  UNL1        0.2103
     45 H          -3.3840    1.0908   -0.8634 H       1  UNL1        0.0657
     46 H           4.4656    0.4592    0.8368 H       1  UNL1        0.0268
     47 H           4.7766    0.1935   -0.8966 H       1  UNL1        0.0268
     48 H           5.1544   -2.4989   -1.3347 H       1  UNL1        0.0268
     49 H           4.9943   -3.3635    0.2131 H       1  UNL1        0.0268
     50 H           6.7649   -1.0690   -0.0762 H       1  UNL1        0.0265
     51 H           5.9643   -1.4341    1.4751 H       1  UNL1        0.0265
     52 H          -1.7512   -3.0318    1.3435 H       1  UNL1        0.0622
     53 H          -4.0735   -2.8376    0.7665 H       1  UNL1        0.0654
     54 H          -6.1219   -1.9860    0.9423 H       1  UNL1        0.0660
     55 H          -5.7583   -2.7133   -0.6851 H       1  UNL1        0.0660
     56 H          -7.0584   -1.5445   -0.4810 H       1  UNL1        0.0660
@<TRIPOS>BOND
     1     1     5    1
     2     1    44    1
     3     2    23    1
     4     2    25    1
     5     3     6    1
     6     3    11    1
     7     3    16    1
     8     4     5    1
     9     4     7    1
    10     4     8    1
    11     4    10    1
    12     5     6    1
    13     5     9    1
    14     6    12    1
    15     6    26    1
    16     7    11    1
    17     7    27    1
    18     7    28    1
    19     8    13    1
    20     8    29    1
    21     8    30    1
    22     9    14    1
    23     9    31    1
    24     9    32    1
    25    10    15   ar
    26    10    18   ar
    27    11    33    1
    28    11    34    1
    29    12    15    1
    30    12    35    1
    31    12    36    1
    32    13    14    1
    33    13    37    1
    34    13    38    1
    35    14    39    1
    36    14    40    1
    37    15    22   ar
    38    16    17    1
    39    16    41    1
    40    16    42    1
    41    17    19    1
    42    17    20    1
    43    17    43    1
    44    18    23   ar
    45    18    45    1
    46    19    21    1
    47    19    46    1
    48    19    47    1
    49    20    21    1
    50    20    48    1
    51    20    49    1
    52    21    50    1
    53    21    51    1
    54    22    24   ar
    55    22    52    1
    56    23    24   ar
    57    24    53    1
    58    25    54    1
    59    25    55    1
    60    25    56    1
@<TRIPOS>MOLECULE
138395412
 62 67 0 0 0
SMALL
GASTEIGER

@<TRIPOS>ATOM
      1 O           1.3344   -2.2380   -0.0119 O.3     1  UNL1       -0.3861
      2 O          -2.9128   -3.3520    0.3883 O.3     1  UNL1       -0.3463
      3 O          -3.0873   -1.2087   -0.5402 O.3     1  UNL1       -0.3463
      4 O          -3.8660    2.9305    0.9775 O.3     1  UNL1       -0.4951
      5 N           2.7326   -0.1052    0.2228 N.3     1  UNL1       -0.2960
      6 C          -0.3139   -0.5612    0.7580 C.3     1  UNL1        0.0323
      7 C           0.5656   -1.0786   -0.3901 C.3     1  UNL1        0.0917
      8 C           1.5154    0.1539   -0.5372 C.3     1  UNL1        0.0440
      9 C          -1.3666   -1.6414    1.1374 C.3     1  UNL1        0.0138
     10 C           0.6954   -0.2899    1.9796 C.3     1  UNL1       -0.0276
     11 C          -0.2497   -1.5591   -1.6126 C.3     1  UNL1       -0.0168
     12 C          -2.1660   -2.2028   -0.0588 C.3     1  UNL1        0.1711
     13 C          -0.9837    0.7865    0.2262 C.ar    1  UNL1       -0.0315
     14 C           2.2859   -0.3221    1.6597 C.3     1  UNL1        0.0002
     15 C          -1.2608   -2.6440   -1.2151 C.3     1  UNL1        0.0041
     16 C           0.9341    1.1352   -1.5445 C.3     1  UNL1       -0.0090
     17 C          -0.4436    1.5137   -0.9146 C.ar    1  UNL1       -0.0418
     18 C           3.7331    0.9469    0.1042 C.3     1  UNL1        0.0021
     19 C           5.1015    0.4400    0.5091 C.3     1  UNL1       -0.0282
     20 C          -2.1176    1.3113    0.8619 C.ar    1  UNL1       -0.0159
     21 C           5.6819   -0.7335   -0.3221 C.3     1  UNL1       -0.0490
     22 C           6.3201    1.2694    0.0274 C.3     1  UNL1       -0.0490
     23 C          -1.1047    2.6439   -1.4068 C.ar    1  UNL1       -0.0548
     24 C           7.0644   -0.0692   -0.1571 C.3     1  UNL1       -0.0525
     25 C          -4.2624   -2.8997    0.4764 C.3     1  UNL1        0.0744
     26 C          -4.3483   -1.8698   -0.6135 C.3     1  UNL1        0.0744
     27 C          -2.7514    2.4503    0.3573 C.ar    1  UNL1        0.1204
     28 C          -2.2596    3.1006   -0.7758 C.ar    1  UNL1       -0.0197
     29 C          -4.4700    4.0930    0.4143 C.3     1  UNL1        0.0788
     30 H           1.2985    0.9244    0.2174 H       1  UNL1        0.0494
     31 H          -0.8502   -2.4869    1.6141 H       1  UNL1        0.0326
     32 H          -2.0551   -1.2672    1.9034 H       1  UNL1        0.0326
     33 H           0.4654    0.6900    2.4184 H       1  UNL1        0.0287
     34 H           0.5222   -1.0271    2.7734 H       1  UNL1        0.0287
     35 H           0.4269   -1.9777   -2.3683 H       1  UNL1        0.0295
     36 H          -0.8082   -0.7600   -2.1065 H       1  UNL1        0.0295
     37 H           2.7598    0.4024    2.3345 H       1  UNL1        0.0427
     38 H           2.6681   -1.3044    1.9643 H       1  UNL1        0.0427
     39 H          -1.8678   -2.9016   -2.0921 H       1  UNL1        0.0318
     40 H          -0.7297   -3.5633   -0.9373 H       1  UNL1        0.0318
     41 H           0.8246    0.7153   -2.5479 H       1  UNL1        0.0329
     42 H           1.5542    2.0372   -1.6183 H       1  UNL1        0.0329
     43 H           3.4623    1.8421    0.6783 H       1  UNL1        0.0429
     44 H           3.7861    1.2624   -0.9461 H       1  UNL1        0.0429
     45 H           2.0104   -2.3753   -0.6976 H       1  UNL1        0.2103
     46 H           5.1569    0.2398    1.5897 H       1  UNL1        0.0313
     47 H          -2.5294    0.8368    1.7476 H       1  UNL1        0.0657
     48 H           5.3385   -0.7716   -1.3628 H       1  UNL1        0.0268
     49 H           5.5796   -1.7270    0.1222 H       1  UNL1        0.0268
     50 H           6.7508    1.9516    0.7650 H       1  UNL1        0.0268
     51 H           6.1626    1.8140   -0.9109 H       1  UNL1        0.0268
     52 H          -0.7081    3.1863   -2.2606 H       1  UNL1        0.0622
     53 H           7.6083   -0.3984    0.7358 H       1  UNL1        0.0265
     54 H           7.7283   -0.1297   -1.0228 H       1  UNL1        0.0265
     55 H          -4.4106   -2.4547    1.4663 H       1  UNL1        0.0584
     56 H          -4.9593   -3.7309    0.3449 H       1  UNL1        0.0584
     57 H          -4.4328   -2.3338   -1.6020 H       1  UNL1        0.0584
     58 H          -5.1666   -1.1588   -0.4764 H       1  UNL1        0.0584
     59 H          -2.7147    3.9852   -1.2086 H       1  UNL1        0.0654
     60 H          -5.3413    4.3350    1.0320 H       1  UNL1        0.0660
     61 H          -4.8414    3.9044   -0.5987 H       1  UNL1        0.0660
     62 H          -3.7993    4.9579    0.4583 H       1  UNL1        0.0660
@<TRIPOS>BOND
     1     1     7    1
     2     1    45    1
     3     2    12    1
     4     2    25    1
     5     3    12    1
     6     3    26    1
     7     4    27    1
     8     4    29    1
     9     5     8    1
    10     5    14    1
    11     5    18    1
    12     6     7    1
    13     6     9    1
    14     6    10    1
    15     6    13    1
    16     7     8    1
    17     7    11    1
    18     8    16    1
    19     8    30    1
    20     9    12    1
    21     9    31    1
    22     9    32    1
    23    10    14    1
    24    10    33    1
    25    10    34    1
    26    11    15    1
    27    11    35    1
    28    11    36    1
    29    12    15    1
    30    13    17   ar
    31    13    20   ar
    32    14    37    1
    33    14    38    1
    34    15    39    1
    35    15    40    1
    36    16    17    1
    37    16    41    1
    38    16    42    1
    39    17    23   ar
    40    18    19    1
    41    18    43    1
    42    18    44    1
    43    19    21    1
    44    19    22    1
    45    19    46    1
    46    20    27   ar
    47    20    47    1
    48    21    24    1
    49    21    48    1
    50    21    49    1
    51    22    24    1
    52    22    50    1
    53    22    51    1
    54    23    28   ar
    55    23    52    1
    56    24    53    1
    57    24    54    1
    58    25    26    1
    59    25    55    1
    60    25    56    1
    61    26    57    1
    62    26    58    1
    63    27    28   ar
    64    28    59    1
    65    29    60    1
    66    29    61    1
    67    29    62    1
@<TRIPOS>MOLECULE
131707803
 52 56 0 0 0
SMALL
GASTEIGER

@<TRIPOS>ATOM
      1 O           0.8068   -2.3068   -0.0831 O.3     1  UNL1       -0.3861
      2 O          -3.7758   -2.6268   -0.0561 O.2     1  UNL1       -0.2974
      3 O          -4.7733    2.3429    1.0059 O.3     1  UNL1       -0.5068
      4 N           2.1317   -0.0919    0.2130 N.3     1  UNL1       -0.2960
      5 C          -0.8719   -0.7492    0.7592 C.3     1  UNL1        0.0341
      6 C           0.0181   -1.1523   -0.4251 C.3     1  UNL1        0.0922
      7 C           0.8913    0.1394   -0.5155 C.3     1  UNL1        0.0440
      8 C           0.1325   -0.4415    1.9767 C.3     1  UNL1       -0.0274
      9 C          -0.7899   -1.6169   -1.6622 C.3     1  UNL1       -0.0150
     10 C          -1.8061   -1.9232    1.1248 C.3     1  UNL1        0.0182
     11 C          -1.6607    0.5452    0.2684 C.ar    1  UNL1       -0.0313
     12 C           1.7171   -0.4091    1.6403 C.3     1  UNL1        0.0002
     13 C           0.2398    1.1330   -1.4661 C.3     1  UNL1       -0.0090
     14 C          -1.1653    1.3744   -0.8245 C.ar    1  UNL1       -0.0418
     15 C           3.0663    1.0235    0.1415 C.3     1  UNL1        0.0021
     16 C          -1.7361   -2.7672   -1.3111 C.3     1  UNL1        0.0085
     17 C           4.4672    0.5794    0.5066 C.3     1  UNL1       -0.0282
     18 C          -2.5632   -2.4235   -0.0911 C.2     1  UNL1        0.1344
     19 C           5.1064   -0.5118   -0.3909 C.3     1  UNL1       -0.0490
     20 C           5.6283    1.5047    0.0589 C.3     1  UNL1       -0.0490
     21 C          -2.8679    0.9124    0.8768 C.ar    1  UNL1       -0.0161
     22 C           6.4489    0.2248   -0.2031 C.3     1  UNL1       -0.0525
     23 C          -1.9187    2.4607   -1.2814 C.ar    1  UNL1       -0.0548
     24 C          -3.5947    2.0103    0.4068 C.ar    1  UNL1        0.1172
     25 C          -3.1309    2.7697   -0.6689 C.ar    1  UNL1       -0.0199
     26 H           0.6358    0.8600    0.2758 H       1  UNL1        0.0494
     27 H          -0.0059   -1.1854    2.7713 H       1  UNL1        0.0287
     28 H          -0.1344    0.5279    2.4185 H       1  UNL1        0.0287
     29 H          -0.1022   -1.9602   -2.4453 H       1  UNL1        0.0298
     30 H          -1.3967   -0.8254   -2.1089 H       1  UNL1        0.0298
     31 H          -2.5201   -1.6543    1.9089 H       1  UNL1        0.0351
     32 H          -1.2330   -2.7758    1.5108 H       1  UNL1        0.0351
     33 H           2.1809    0.2856    2.3524 H       1  UNL1        0.0427
     34 H           2.1310   -1.3969    1.8784 H       1  UNL1        0.0427
     35 H           0.1614    0.7620   -2.4917 H       1  UNL1        0.0329
     36 H           0.7912    2.0812   -1.4868 H       1  UNL1        0.0329
     37 H           2.7496    1.8690    0.7654 H       1  UNL1        0.0429
     38 H           3.0873    1.3967   -0.8909 H       1  UNL1        0.0429
     39 H          -1.1836   -3.6890   -1.1004 H       1  UNL1        0.0342
     40 H          -2.4062   -2.9649   -2.1546 H       1  UNL1        0.0342
     41 H           4.5479    0.3264    1.5744 H       1  UNL1        0.0313
     42 H           1.5005   -2.3936   -0.7593 H       1  UNL1        0.2103
     43 H           4.7535   -0.5158   -1.4291 H       1  UNL1        0.0268
     44 H           5.0690   -1.5317    0.0009 H       1  UNL1        0.0268
     45 H           6.0264    2.1718    0.8278 H       1  UNL1        0.0268
     46 H           5.4273    2.0873   -0.8478 H       1  UNL1        0.0268
     47 H          -3.2555    0.3491    1.7201 H       1  UNL1        0.0657
     48 H           7.0221   -0.1176    0.6662 H       1  UNL1        0.0265
     49 H           7.1047    0.2499   -1.0767 H       1  UNL1        0.0265
     50 H          -1.5568    3.0795   -2.0978 H       1  UNL1        0.0622
     51 H          -3.7077    3.6198   -1.0244 H       1  UNL1        0.0654
     52 H          -4.9486    1.7173    1.7296 H       1  UNL1        0.2921
@<TRIPOS>BOND
     1     1     6    1
     2     1    42    1
     3     2    18    2
     4     3    24    1
     5     3    52    1
     6     4     7    1
     7     4    12    1
     8     4    15    1
     9     5     6    1
    10     5     8    1
    11     5    10    1
    12     5    11    1
    13     6     7    1
    14     6     9    1
    15     7    13    1
    16     7    26    1
    17     8    12    1
    18     8    27    1
    19     8    28    1
    20     9    16    1
    21     9    29    1
    22     9    30    1
    23    10    18    1
    24    10    31    1
    25    10    32    1
    26    11    14   ar
    27    11    21   ar
    28    12    33    1
    29    12    34    1
    30    13    14    1
    31    13    35    1
    32    13    36    1
    33    14    23   ar
    34    15    17    1
    35    15    37    1
    36    15    38    1
    37    16    18    1
    38    16    39    1
    39    16    40    1
    40    17    19    1
    41    17    20    1
    42    17    41    1
    43    19    22    1
    44    19    43    1
    45    19    44    1
    46    20    22    1
    47    20    45    1
    48    20    46    1
    49    21    24   ar
    50    21    47    1
    51    22    48    1
    52    22    49    1
    53    23    25   ar
    54    23    50    1
    55    24    25   ar
    56    25    51    1
