@<TRIPOS>MOLECULE
62156
 59 61 0 0 0
SMALL
GASTEIGER

@<TRIPOS>ATOM
      1 O          -0.8036    2.7009    0.7448 O.3     1  UNL1       -0.4664
      2 O          -2.1698    1.5219    2.1873 O.2     1  UNL1       -0.2484
      3 O          -3.0701    2.3826   -1.1691 O.2     1  UNL1       -0.2752
      4 N           1.5416   -0.2758    0.0399 N.3     1  UNL1       -0.3018
      5 N          -2.6421    0.2359   -0.2616 N.am    1  UNL1       -0.2547
      6 C          -1.2938    0.4755    0.1979 C.3     1  UNL1        0.1408
      7 C          -0.7288   -0.7645    0.8975 C.3     1  UNL1       -0.0078
      8 C          -0.3907    0.9026   -0.9632 C.3     1  UNL1       -0.0078
      9 C           0.7576   -0.6136    1.2348 C.3     1  UNL1        0.0014
     10 C           1.0822    0.9871   -0.5520 C.3     1  UNL1        0.0014
     11 C           2.9651   -0.1987    0.3675 C.3     1  UNL1        0.0029
     12 C          -1.4907    1.6036    1.1727 C.2     1  UNL1        0.3312
     13 C          -3.2278   -1.0847   -0.0443 C.ar    1  UNL1        0.0374
     14 C           3.8266   -0.4676   -0.8669 C.3     1  UNL1       -0.0149
     15 C          -3.4284    1.2293   -0.9178 C.2     1  UNL1        0.2205
     16 C          -4.8446    0.7931   -1.2828 C.3     1  UNL1        0.0217
     17 C           5.2973   -0.4131   -0.5379 C.ar    1  UNL1       -0.0462
     18 C          -3.0783   -2.0812   -1.0090 C.ar    1  UNL1       -0.0402
     19 C          -3.9360   -1.3497    1.1280 C.ar    1  UNL1       -0.0402
     20 C          -5.6329    1.8833   -1.9924 C.3     1  UNL1       -0.0570
     21 C          -0.9047    3.8555    1.5843 C.3     1  UNL1        0.0817
     22 C          -3.6370   -3.3423   -0.8016 C.ar    1  UNL1       -0.0600
     23 C          -4.4947   -2.6109    1.3354 C.ar    1  UNL1       -0.0600
     24 C           5.9893    0.7942   -0.6345 C.ar    1  UNL1       -0.0585
     25 C           5.9657   -1.5699   -0.1367 C.ar    1  UNL1       -0.0585
     26 C          -4.3451   -3.6072    0.3705 C.ar    1  UNL1       -0.0616
     27 C           7.3497    0.8447   -0.3300 C.ar    1  UNL1       -0.0615
     28 C           7.3260   -1.5192    0.1679 C.ar    1  UNL1       -0.0615
     29 C           8.0179   -0.3118    0.0712 C.ar    1  UNL1       -0.0617
     30 H          -1.2557   -0.9868    1.8338 H       1  UNL1        0.0304
     31 H          -0.7947   -1.6543    0.2600 H       1  UNL1        0.0304
     32 H          -0.4765    0.1552   -1.7661 H       1  UNL1        0.0304
     33 H          -0.6841    1.8483   -1.4333 H       1  UNL1        0.0304
     34 H           0.8892    0.1466    2.0161 H       1  UNL1        0.0427
     35 H           1.1039   -1.5678    1.6517 H       1  UNL1        0.0427
     36 H           1.6509    1.2030   -1.4637 H       1  UNL1        0.0427
     37 H           1.2708    1.8241    0.1287 H       1  UNL1        0.0427
     38 H           3.2232    0.7608    0.8358 H       1  UNL1        0.0430
     39 H           3.2180   -0.9692    1.1094 H       1  UNL1        0.0430
     40 H           3.6218    0.2561   -1.6647 H       1  UNL1        0.0326
     41 H           3.5855   -1.4517   -1.2905 H       1  UNL1        0.0326
     42 H          -5.3862    0.5222   -0.3711 H       1  UNL1        0.0356
     43 H          -4.7990   -0.0742   -1.9485 H       1  UNL1        0.0356
     44 H          -2.5285   -1.8847   -1.9257 H       1  UNL1        0.0636
     45 H          -4.0618   -0.5812    1.8858 H       1  UNL1        0.0636
     46 H          -5.7324    2.7721   -1.3604 H       1  UNL1        0.0234
     47 H          -5.1387    2.1845   -2.9220 H       1  UNL1        0.0234
     48 H          -6.6377    1.5268   -2.2397 H       1  UNL1        0.0234
     49 H          -0.3136    4.6564    1.1325 H       1  UNL1        0.0661
     50 H          -0.5007    3.6376    2.5775 H       1  UNL1        0.0661
     51 H          -1.9464    4.1830    1.6529 H       1  UNL1        0.0661
     52 H          -3.5206   -4.1180   -1.5528 H       1  UNL1        0.0618
     53 H          -5.0466   -2.8170    2.2478 H       1  UNL1        0.0618
     54 H           5.4791    1.7025   -0.9437 H       1  UNL1        0.0620
     55 H           5.4371   -2.5161   -0.0558 H       1  UNL1        0.0620
     56 H          -4.7802   -4.5890    0.5320 H       1  UNL1        0.0618
     57 H           7.8883    1.7848   -0.4046 H       1  UNL1        0.0618
     58 H           7.8465   -2.4197    0.4808 H       1  UNL1        0.0618
     59 H           9.0770   -0.2724    0.3086 H       1  UNL1        0.0618
@<TRIPOS>BOND
     1     1    12    1
     2     1    21    1
     3     2    12    2
     4     3    15    2
     5     4     9    1
     6     4    10    1
     7     4    11    1
     8     5     6    1
     9     5    13    1
    10     5    15   am
    11     6     7    1
    12     6     8    1
    13     6    12    1
    14     7     9    1
    15     7    30    1
    16     7    31    1
    17     8    10    1
    18     8    32    1
    19     8    33    1
    20     9    34    1
    21     9    35    1
    22    10    36    1
    23    10    37    1
    24    11    14    1
    25    11    38    1
    26    11    39    1
    27    13    18   ar
    28    13    19   ar
    29    14    17    1
    30    14    40    1
    31    14    41    1
    32    15    16    1
    33    16    20    1
    34    16    42    1
    35    16    43    1
    36    17    24   ar
    37    17    25   ar
    38    18    22   ar
    39    18    44    1
    40    19    23   ar
    41    19    45    1
    42    20    46    1
    43    20    47    1
    44    20    48    1
    45    21    49    1
    46    21    50    1
    47    21    51    1
    48    22    26   ar
    49    22    52    1
    50    23    26   ar
    51    23    53    1
    52    24    27   ar
    53    24    54    1
    54    25    28   ar
    55    25    55    1
    56    26    56    1
    57    27    29   ar
    58    27    57    1
    59    28    29   ar
    60    28    58    1
    61    29    59    1
@<TRIPOS>MOLECULE
449698
 59 61 0 0 0
SMALL
GASTEIGER

@<TRIPOS>ATOM
      1 O          -0.8036    2.7009    0.7448 O.3     1  UNL1       -0.4664
      2 O          -2.1698    1.5219    2.1873 O.2     1  UNL1       -0.2484
      3 O          -3.0701    2.3826   -1.1691 O.2     1  UNL1       -0.2752
      4 N           1.5416   -0.2758    0.0399 N.3     1  UNL1       -0.3018
      5 N          -2.6421    0.2359   -0.2616 N.am    1  UNL1       -0.2547
      6 C          -1.2938    0.4755    0.1979 C.3     1  UNL1        0.1408
      7 C          -0.7288   -0.7645    0.8975 C.3     1  UNL1       -0.0078
      8 C          -0.3907    0.9026   -0.9632 C.3     1  UNL1       -0.0078
      9 C           0.7576   -0.6136    1.2348 C.3     1  UNL1        0.0014
     10 C           1.0822    0.9871   -0.5520 C.3     1  UNL1        0.0014
     11 C           2.9651   -0.1987    0.3675 C.3     1  UNL1        0.0029
     12 C          -1.4907    1.6036    1.1727 C.2     1  UNL1        0.3312
     13 C          -3.2278   -1.0847   -0.0443 C.ar    1  UNL1        0.0374
     14 C           3.8266   -0.4676   -0.8669 C.3     1  UNL1       -0.0149
     15 C          -3.4284    1.2293   -0.9178 C.2     1  UNL1        0.2205
     16 C          -4.8446    0.7931   -1.2828 C.3     1  UNL1        0.0217
     17 C           5.2973   -0.4131   -0.5379 C.ar    1  UNL1       -0.0462
     18 C          -3.0783   -2.0812   -1.0090 C.ar    1  UNL1       -0.0402
     19 C          -3.9360   -1.3497    1.1280 C.ar    1  UNL1       -0.0402
     20 C          -5.6329    1.8833   -1.9924 C.3     1  UNL1       -0.0570
     21 C          -0.9047    3.8555    1.5843 C.3     1  UNL1        0.0817
     22 C          -3.6370   -3.3423   -0.8016 C.ar    1  UNL1       -0.0600
     23 C          -4.4947   -2.6109    1.3354 C.ar    1  UNL1       -0.0600
     24 C           5.9893    0.7942   -0.6345 C.ar    1  UNL1       -0.0585
     25 C           5.9657   -1.5699   -0.1367 C.ar    1  UNL1       -0.0585
     26 C          -4.3451   -3.6072    0.3705 C.ar    1  UNL1       -0.0616
     27 C           7.3497    0.8447   -0.3300 C.ar    1  UNL1       -0.0615
     28 C           7.3260   -1.5192    0.1679 C.ar    1  UNL1       -0.0615
     29 C           8.0179   -0.3118    0.0712 C.ar    1  UNL1       -0.0617
     30 H          -1.2557   -0.9868    1.8338 H       1  UNL1        0.0304
     31 H          -0.7947   -1.6543    0.2600 H       1  UNL1        0.0304
     32 H          -0.4765    0.1552   -1.7661 H       1  UNL1        0.0304
     33 H          -0.6841    1.8483   -1.4333 H       1  UNL1        0.0304
     34 H           0.8892    0.1466    2.0161 H       1  UNL1        0.0427
     35 H           1.1039   -1.5678    1.6517 H       1  UNL1        0.0427
     36 H           1.6509    1.2030   -1.4637 H       1  UNL1        0.0427
     37 H           1.2708    1.8241    0.1287 H       1  UNL1        0.0427
     38 H           3.2232    0.7608    0.8358 H       1  UNL1        0.0430
     39 H           3.2180   -0.9692    1.1094 H       1  UNL1        0.0430
     40 H           3.5855   -1.4517   -1.2905 H       1  UNL1        0.0326
     41 H           3.6218    0.2561   -1.6647 H       1  UNL1        0.0326
     42 H          -4.7990   -0.0742   -1.9485 H       1  UNL1        0.0356
     43 H          -5.3862    0.5222   -0.3711 H       1  UNL1        0.0356
     44 H          -2.5285   -1.8847   -1.9257 H       1  UNL1        0.0636
     45 H          -4.0618   -0.5812    1.8858 H       1  UNL1        0.0636
     46 H          -5.1387    2.1845   -2.9220 H       1  UNL1        0.0234
     47 H          -5.7324    2.7721   -1.3604 H       1  UNL1        0.0234
     48 H          -6.6377    1.5268   -2.2397 H       1  UNL1        0.0234
     49 H          -1.9464    4.1830    1.6529 H       1  UNL1        0.0661
     50 H          -0.5007    3.6376    2.5775 H       1  UNL1        0.0661
     51 H          -0.3136    4.6564    1.1325 H       1  UNL1        0.0661
     52 H          -3.5206   -4.1180   -1.5528 H       1  UNL1        0.0618
     53 H          -5.0466   -2.8170    2.2478 H       1  UNL1        0.0618
     54 H           5.4791    1.7025   -0.9437 H       1  UNL1        0.0620
     55 H           5.4371   -2.5161   -0.0558 H       1  UNL1        0.0620
     56 H          -4.7802   -4.5890    0.5320 H       1  UNL1        0.0618
     57 H           7.8883    1.7848   -0.4046 H       1  UNL1        0.0618
     58 H           7.8465   -2.4197    0.4808 H       1  UNL1        0.0618
     59 H           9.0770   -0.2724    0.3086 H       1  UNL1        0.0618
@<TRIPOS>BOND
     1     1    12    1
     2     1    21    1
     3     2    12    2
     4     3    15    2
     5     4     9    1
     6     4    10    1
     7     4    11    1
     8     5     6    1
     9     5    13    1
    10     5    15   am
    11     6     7    1
    12     6     8    1
    13     6    12    1
    14     7     9    1
    15     7    30    1
    16     7    31    1
    17     8    10    1
    18     8    32    1
    19     8    33    1
    20     9    34    1
    21     9    35    1
    22    10    36    1
    23    10    37    1
    24    11    14    1
    25    11    38    1
    26    11    39    1
    27    13    18   ar
    28    13    19   ar
    29    14    17    1
    30    14    40    1
    31    14    41    1
    32    15    16    1
    33    16    20    1
    34    16    42    1
    35    16    43    1
    36    17    24   ar
    37    17    25   ar
    38    18    22   ar
    39    18    44    1
    40    19    23   ar
    41    19    45    1
    42    20    46    1
    43    20    47    1
    44    20    48    1
    45    21    49    1
    46    21    50    1
    47    21    51    1
    48    22    26   ar
    49    22    52    1
    50    23    26   ar
    51    23    53    1
    52    24    27   ar
    53    24    54    1
    54    25    28   ar
    55    25    55    1
    56    26    56    1
    57    27    29   ar
    58    27    57    1
    59    28    29   ar
    60    28    58    1
    61    29    59    1
@<TRIPOS>MOLECULE
155548948
 58 60 0 0 0
SMALL
GASTEIGER

@<TRIPOS>ATOM
      1 O          -2.0180   -1.1984    2.1381 O.3     1  UNL1       -0.4664
      2 O          -1.3376   -2.9844    0.8406 O.2     1  UNL1       -0.2484
      3 O          -3.7410   -2.2268   -1.0605 O.2     1  UNL1       -0.2752
      4 O           3.3040    1.2683   -1.5763 O.2     1  UNL1       -0.2907
      5 N           1.4241   -0.6267   -0.9025 N.3     1  UNL1       -0.2949
      6 N          -2.7328   -0.2441   -0.2423 N.am    1  UNL1       -0.2547
      7 C          -1.3899   -0.7525   -0.0761 C.3     1  UNL1        0.1408
      8 C          -0.8842   -1.3921   -1.3734 C.3     1  UNL1       -0.0078
      9 C          -0.4467    0.3610    0.3872 C.3     1  UNL1       -0.0078
     10 C           0.5967   -1.7784   -1.2845 C.3     1  UNL1        0.0018
     11 C           1.0169   -0.0949    0.4045 C.3     1  UNL1        0.0018
     12 C          -1.5685   -1.7929    0.9965 C.2     1  UNL1        0.3312
     13 C           2.8390   -0.9974   -0.8851 C.3     1  UNL1        0.0620
     14 C          -2.9493    1.1786    0.0102 C.ar    1  UNL1        0.0374
     15 C          -3.8122   -1.0406   -0.7293 C.2     1  UNL1        0.2205
     16 C           3.6826    0.2607   -0.9829 C.2     1  UNL1        0.1770
     17 C          -5.1619   -0.3312   -0.7859 C.3     1  UNL1        0.0217
     18 C          -3.3795    1.6067    1.2661 C.ar    1  UNL1       -0.0402
     19 C          -2.7263    2.1087   -1.0050 C.ar    1  UNL1       -0.0402
     20 C           5.0252    0.2682   -0.3289 C.ar    1  UNL1        0.0187
     21 C          -6.2771   -1.2260   -1.3052 C.3     1  UNL1       -0.0570
     22 C          -2.2321   -2.0777    3.2467 C.3     1  UNL1        0.0817
     23 C          -3.5868    2.9650    1.5067 C.ar    1  UNL1       -0.0600
     24 C          -2.9336    3.4669   -0.7645 C.ar    1  UNL1       -0.0600
     25 C          -3.3638    3.8950    0.4914 C.ar    1  UNL1       -0.0616
     26 C           5.7493   -0.9180   -0.2088 C.ar    1  UNL1       -0.0512
     27 C           5.5556    1.4616    0.1608 C.ar    1  UNL1       -0.0512
     28 C           7.0038   -0.9106    0.4010 C.ar    1  UNL1       -0.0611
     29 C           6.8100    1.4690    0.7706 C.ar    1  UNL1       -0.0611
     30 C           7.5342    0.2829    0.8907 C.ar    1  UNL1       -0.0617
     31 H          -1.4416   -2.2932   -1.6501 H       1  UNL1        0.0304
     32 H          -1.0157   -0.6860   -2.2053 H       1  UNL1        0.0304
     33 H          -0.6836    0.7411    1.3882 H       1  UNL1        0.0304
     34 H          -0.4595    1.2156   -0.2987 H       1  UNL1        0.0304
     35 H           0.7415   -2.6116   -0.5863 H       1  UNL1        0.0427
     36 H           0.9036   -2.1380   -2.2748 H       1  UNL1        0.0427
     37 H           1.6312    0.7724    0.6752 H       1  UNL1        0.0427
     38 H           1.1591   -0.8441    1.1948 H       1  UNL1        0.0427
     39 H           3.0831   -1.5786    0.0111 H       1  UNL1        0.0508
     40 H           3.0956   -1.5972   -1.7674 H       1  UNL1        0.0508
     41 H          -5.4338    0.0040    0.2200 H       1  UNL1        0.0356
     42 H          -5.0892    0.5374   -1.4477 H       1  UNL1        0.0356
     43 H          -3.5697    0.8960    2.0647 H       1  UNL1        0.0636
     44 H          -2.3945    1.7856   -1.9884 H       1  UNL1        0.0636
     45 H          -6.4088   -2.1036   -0.6635 H       1  UNL1        0.0234
     46 H          -7.2239   -0.6777   -1.3314 H       1  UNL1        0.0234
     47 H          -6.0586   -1.5792   -2.3184 H       1  UNL1        0.0234
     48 H          -2.5889   -1.4804    4.0898 H       1  UNL1        0.0661
     49 H          -2.9934   -2.8228    2.9966 H       1  UNL1        0.0661
     50 H          -1.2937   -2.5629    3.5314 H       1  UNL1        0.0661
     51 H          -3.9244    3.2982    2.4837 H       1  UNL1        0.0618
     52 H          -2.7608    4.1910   -1.5553 H       1  UNL1        0.0618
     53 H          -3.5260    4.9525    0.6784 H       1  UNL1        0.0618
     54 H           5.3691   -1.8591   -0.5957 H       1  UNL1        0.0625
     55 H           5.0038    2.3945    0.0801 H       1  UNL1        0.0625
     56 H           7.5696   -1.8333    0.4913 H       1  UNL1        0.0618
     57 H           7.2228    2.3981    1.1528 H       1  UNL1        0.0618
     58 H           8.5112    0.2888    1.3649 H       1  UNL1        0.0618
@<TRIPOS>BOND
     1     1    12    1
     2     1    22    1
     3     2    12    2
     4     3    15    2
     5     4    16    2
     6     5    10    1
     7     5    11    1
     8     5    13    1
     9     6     7    1
    10     6    14    1
    11     6    15   am
    12     7     8    1
    13     7     9    1
    14     7    12    1
    15     8    10    1
    16     8    31    1
    17     8    32    1
    18     9    11    1
    19     9    33    1
    20     9    34    1
    21    10    35    1
    22    10    36    1
    23    11    37    1
    24    11    38    1
    25    13    16    1
    26    13    39    1
    27    13    40    1
    28    14    18   ar
    29    14    19   ar
    30    15    17    1
    31    16    20    1
    32    17    21    1
    33    17    41    1
    34    17    42    1
    35    18    23   ar
    36    18    43    1
    37    19    24   ar
    38    19    44    1
    39    20    26   ar
    40    20    27   ar
    41    21    45    1
    42    21    46    1
    43    21    47    1
    44    22    48    1
    45    22    49    1
    46    22    50    1
    47    23    25   ar
    48    23    51    1
    49    24    25   ar
    50    24    52    1
    51    25    53    1
    52    26    28   ar
    53    26    54    1
    54    27    29   ar
    55    27    55    1
    56    28    30   ar
    57    28    56    1
    58    29    30   ar
    59    29    57    1
    60    30    58    1
@<TRIPOS>MOLECULE
12298033
 60 62 0 0 0
SMALL
GASTEIGER

@<TRIPOS>ATOM
      1 O          -0.7341    2.6644    0.7184 O.3     1  UNL1       -0.4664
      2 O          -2.2401    1.6478    2.1452 O.2     1  UNL1       -0.2484
      3 O           3.6816   -2.3022   -0.8217 O.3     1  UNL1       -0.3859
      4 O          -2.9466    2.4496   -1.2716 O.2     1  UNL1       -0.2752
      5 N           1.3964   -0.5072    0.2090 N.3     1  UNL1       -0.2994
      6 N          -2.7208    0.3117   -0.2749 N.am    1  UNL1       -0.2547
      7 C          -1.3758    0.4642    0.2290 C.3     1  UNL1        0.1408
      8 C          -0.4001    0.7776   -0.9094 C.3     1  UNL1       -0.0078
      9 C          -0.9351   -0.7885    0.9924 C.3     1  UNL1       -0.0078
     10 C           1.0589    0.7644   -0.4434 C.3     1  UNL1        0.0015
     11 C           0.5451   -0.7394    1.3828 C.3     1  UNL1        0.0015
     12 C           2.8086   -0.5270    0.5898 C.3     1  UNL1        0.0291
     13 C          -1.5199    1.6396    1.1561 C.2     1  UNL1        0.3312
     14 C           3.6920   -0.8911   -0.6099 C.3     1  UNL1        0.0928
     15 C          -3.4152   -0.9513   -0.0360 C.ar    1  UNL1        0.0374
     16 C          -3.4027    1.3372   -0.9954 C.2     1  UNL1        0.2205
     17 C          -4.8342    0.9974   -1.4009 C.3     1  UNL1        0.0217
     18 C           5.1250   -0.4559   -0.3952 C.ar    1  UNL1       -0.0179
     19 C          -3.3084   -1.9914   -0.9593 C.ar    1  UNL1       -0.0402
     20 C          -4.1845   -1.1175    1.1158 C.ar    1  UNL1       -0.0402
     21 C          -5.5086    2.1177   -2.1780 C.3     1  UNL1       -0.0570
     22 C          -0.7758    3.8538    1.5132 C.3     1  UNL1        0.0817
     23 C          -3.9708   -3.1975   -0.7311 C.ar    1  UNL1       -0.0600
     24 C          -4.8469   -2.3237    1.3440 C.ar    1  UNL1       -0.0600
     25 C           5.9188   -0.1061   -1.4877 C.ar    1  UNL1       -0.0561
     26 C           5.6525   -0.4038    0.8951 C.ar    1  UNL1       -0.0561
     27 C          -4.7401   -3.3636    0.4205 C.ar    1  UNL1       -0.0616
     28 C           7.2399    0.2954   -1.2899 C.ar    1  UNL1       -0.0614
     29 C           6.9735   -0.0022    1.0928 C.ar    1  UNL1       -0.0614
     30 C           7.7672    0.3474    0.0003 C.ar    1  UNL1       -0.0617
     31 H          -0.5141    0.0098   -1.6893 H       1  UNL1        0.0304
     32 H          -0.6015    1.7250   -1.4226 H       1  UNL1        0.0304
     33 H          -1.5119   -0.9350    1.9142 H       1  UNL1        0.0304
     34 H          -1.0466   -1.6936    0.3835 H       1  UNL1        0.0304
     35 H           1.2832    1.6084    0.2175 H       1  UNL1        0.0427
     36 H           1.6747    0.9111   -1.3378 H       1  UNL1        0.0427
     37 H           0.7996   -1.7013    1.8454 H       1  UNL1        0.0427
     38 H           0.7065    0.0369    2.1424 H       1  UNL1        0.0427
     39 H           3.0824    0.4404    1.0317 H       1  UNL1        0.0455
     40 H           2.9563   -1.2917    1.3647 H       1  UNL1        0.0455
     41 H           3.3265   -0.4231   -1.5294 H       1  UNL1        0.0656
     42 H          -5.4283    0.8029   -0.5026 H       1  UNL1        0.0356
     43 H          -4.8319    0.1051   -2.0342 H       1  UNL1        0.0356
     44 H          -2.7116   -1.8718   -1.8598 H       1  UNL1        0.0636
     45 H          -4.2778   -0.3140    1.8413 H       1  UNL1        0.0636
     46 H           4.1320   -2.7276   -0.0720 H       1  UNL1        0.2103
     47 H          -6.5283    1.8301   -2.4525 H       1  UNL1        0.0234
     48 H          -5.5616    3.0343   -1.5811 H       1  UNL1        0.0234
     49 H          -4.9586    2.3454   -3.0971 H       1  UNL1        0.0234
     50 H          -0.4266    3.6426    2.5284 H       1  UNL1        0.0661
     51 H          -0.1079    4.5898    1.0580 H       1  UNL1        0.0661
     52 H          -1.7907    4.2624    1.5294 H       1  UNL1        0.0661
     53 H          -3.8877   -4.0072   -1.4502 H       1  UNL1        0.0618
     54 H          -5.4464   -2.4529    2.2404 H       1  UNL1        0.0618
     55 H           5.5207   -0.1442   -2.4981 H       1  UNL1        0.0621
     56 H           5.0786   -0.6899    1.7707 H       1  UNL1        0.0621
     57 H          -5.2560   -4.3027    0.5981 H       1  UNL1        0.0618
     58 H           7.8582    0.5669   -2.1405 H       1  UNL1        0.0618
     59 H           7.3866    0.0332    2.0967 H       1  UNL1        0.0618
     60 H           8.7963    0.6586    0.1542 H       1  UNL1        0.0618
@<TRIPOS>BOND
     1     1    13    1
     2     1    22    1
     3     2    13    2
     4     3    14    1
     5     3    46    1
     6     4    16    2
     7     5    10    1
     8     5    11    1
     9     5    12    1
    10     6     7    1
    11     6    15    1
    12     6    16   am
    13     7     8    1
    14     7     9    1
    15     7    13    1
    16     8    10    1
    17     8    31    1
    18     8    32    1
    19     9    11    1
    20     9    33    1
    21     9    34    1
    22    10    35    1
    23    10    36    1
    24    11    37    1
    25    11    38    1
    26    12    14    1
    27    12    39    1
    28    12    40    1
    29    14    18    1
    30    14    41    1
    31    15    19   ar
    32    15    20   ar
    33    16    17    1
    34    17    21    1
    35    17    42    1
    36    17    43    1
    37    18    25   ar
    38    18    26   ar
    39    19    23   ar
    40    19    44    1
    41    20    24   ar
    42    20    45    1
    43    21    47    1
    44    21    48    1
    45    21    49    1
    46    22    50    1
    47    22    51    1
    48    22    52    1
    49    23    27   ar
    50    23    53    1
    51    24    27   ar
    52    24    54    1
    53    25    28   ar
    54    25    55    1
    55    26    29   ar
    56    26    56    1
    57    27    57    1
    58    28    30   ar
    59    28    58    1
    60    29    30   ar
    61    29    59    1
    62    30    60    1
@<TRIPOS>MOLECULE
165365203
 59 61 0 0 0
SMALL
GASTEIGER

@<TRIPOS>ATOM
      1 O          -2.2559   -1.2796    2.0996 O.3     1  UNL1       -0.4664
      2 O          -0.9046   -2.7714    0.9660 O.2     1  UNL1       -0.2484
      3 O          -2.8944   -2.3853   -1.4538 O.2     1  UNL1       -0.2752
      4 N           1.5919    0.2479    0.0304 N.3     1  UNL1       -0.3018
      5 N          -2.5798   -0.3078   -0.3578 N.am    1  UNL1       -0.2547
      6 C          -1.2360   -0.5339    0.1248 C.3     1  UNL1        0.1408
      7 C          -0.7039    0.7120    0.8381 C.3     1  UNL1       -0.0078
      8 C          -0.3067   -0.9455   -1.0218 C.3     1  UNL1       -0.0078
      9 C           0.7774    0.5745    1.2081 C.3     1  UNL1        0.0014
     10 C           1.1584   -1.0173   -0.5764 C.3     1  UNL1        0.0014
     11 C           3.0082    0.1832    0.3905 C.3     1  UNL1        0.0029
     12 C          -1.4267   -1.6719    1.0909 C.2     1  UNL1        0.3312
     13 C          -3.1630    1.0123   -0.1296 C.ar    1  UNL1        0.0374
     14 C           3.8788    0.3879   -0.8489 C.3     1  UNL1       -0.0149
     15 C          -3.3060   -1.2715   -1.1196 C.2     1  UNL1        0.2205
     16 C          -4.7272   -0.8599   -1.4924 C.3     1  UNL1        0.0217
     17 C           5.3469    0.3158   -0.5119 C.ar    1  UNL1       -0.0462
     18 C          -3.9638    1.2372    0.9901 C.ar    1  UNL1       -0.0402
     19 C          -2.9194    2.0475   -1.0321 C.ar    1  UNL1       -0.0402
     20 C          -5.4576   -1.9244   -2.2971 C.3     1  UNL1       -0.0570
     21 C          -2.5246   -2.2711    3.0960 C.3     1  UNL1        0.0817
     22 C          -4.5210    2.4975    1.2073 C.ar    1  UNL1       -0.0600
     23 C          -3.4765    3.3077   -0.8150 C.ar    1  UNL1       -0.0600
     24 C           6.0369    1.4734   -0.1518 C.ar    1  UNL1       -0.0585
     25 C           6.0150   -0.9077   -0.5604 C.ar    1  UNL1       -0.0585
     26 C          -4.2774    3.5326    0.3047 C.ar    1  UNL1       -0.0616
     27 C           7.3949    1.4075    0.1598 C.ar    1  UNL1       -0.0615
     28 C           7.3731   -0.9736   -0.2489 C.ar    1  UNL1       -0.0615
     29 C           8.0630    0.1840    0.1112 C.ar    1  UNL1       -0.0617
     30 H          -1.2506    0.9519    1.7580 H       1  UNL1        0.0304
     31 H          -0.7446    1.5971    0.1933 H       1  UNL1        0.0304
     32 H          -0.3916   -0.2184   -1.8416 H       1  UNL1        0.0304
     33 H          -0.5666   -1.9186   -1.4518 H       1  UNL1        0.0304
     34 H           0.8988   -0.1855    1.9911 H       1  UNL1        0.0427
     35 H           1.1057    1.5310    1.6341 H       1  UNL1        0.0427
     36 H           1.7480   -1.2426   -1.4713 H       1  UNL1        0.0427
     37 H           1.3087   -1.8547    0.1159 H       1  UNL1        0.0427
     38 H           3.2516    0.9881    1.0976 H       1  UNL1        0.0430
     39 H           3.2531   -0.7563    0.9039 H       1  UNL1        0.0430
     40 H           3.6718   -0.3588   -1.6239 H       1  UNL1        0.0326
     41 H           3.6592    1.3602   -1.3100 H       1  UNL1        0.0326
     42 H          -4.6957    0.0552   -2.0919 H       1  UNL1        0.0356
     43 H          -5.2981   -0.6719   -0.5776 H       1  UNL1        0.0356
     44 H          -4.1742    0.4401    1.6968 H       1  UNL1        0.0636
     45 H          -2.2998    1.8822   -1.9097 H       1  UNL1        0.0636
     46 H          -5.5379   -2.8589   -1.7320 H       1  UNL1        0.0234
     47 H          -6.4690   -1.5873   -2.5442 H       1  UNL1        0.0234
     48 H          -4.9312   -2.1404   -3.2327 H       1  UNL1        0.0234
     49 H          -3.1959   -1.8324    3.8389 H       1  UNL1        0.0661
     50 H          -3.0180   -3.1369    2.6442 H       1  UNL1        0.0661
     51 H          -1.5966   -2.5694    3.5928 H       1  UNL1        0.0661
     52 H          -5.1469    2.6719    2.0776 H       1  UNL1        0.0618
     53 H          -3.2875    4.1135   -1.5182 H       1  UNL1        0.0618
     54 H           5.5270    2.4321   -0.1086 H       1  UNL1        0.0620
     55 H           5.4878   -1.8168   -0.8375 H       1  UNL1        0.0620
     56 H          -4.7119    4.5136    0.4733 H       1  UNL1        0.0618
     57 H           7.9321    2.3086    0.4407 H       1  UNL1        0.0618
     58 H           7.8932   -1.9263   -0.2861 H       1  UNL1        0.0618
     59 H           9.1203    0.1326    0.3540 H       1  UNL1        0.0618
@<TRIPOS>BOND
     1     1    12    1
     2     1    21    1
     3     2    12    2
     4     3    15    2
     5     4     9    1
     6     4    10    1
     7     4    11    1
     8     5     6    1
     9     5    13    1
    10     5    15   am
    11     6     7    1
    12     6     8    1
    13     6    12    1
    14     7     9    1
    15     7    30    1
    16     7    31    1
    17     8    10    1
    18     8    32    1
    19     8    33    1
    20     9    34    1
    21     9    35    1
    22    10    36    1
    23    10    37    1
    24    11    14    1
    25    11    38    1
    26    11    39    1
    27    13    18   ar
    28    13    19   ar
    29    14    17    1
    30    14    40    1
    31    14    41    1
    32    15    16    1
    33    16    20    1
    34    16    42    1
    35    16    43    1
    36    17    24   ar
    37    17    25   ar
    38    18    22   ar
    39    18    44    1
    40    19    23   ar
    41    19    45    1
    42    20    46    1
    43    20    47    1
    44    20    48    1
    45    21    49    1
    46    21    50    1
    47    21    51    1
    48    22    26   ar
    49    22    52    1
    50    23    26   ar
    51    23    53    1
    52    24    27   ar
    53    24    54    1
    54    25    28   ar
    55    25    55    1
    56    26    56    1
    57    27    29   ar
    58    27    57    1
    59    28    29   ar
    60    28    58    1
    61    29    59    1
@<TRIPOS>MOLECULE
46780189
 59 61 0 0 0
SMALL
GASTEIGER

@<TRIPOS>ATOM
      1 O          -1.0561   -2.8440    0.6598 O.3     1  UNL1       -0.4664
      2 O          -2.0704   -1.4623    2.2086 O.2     1  UNL1       -0.2484
      3 O          -3.4423   -2.2420   -1.1454 O.2     1  UNL1       -0.2752
      4 N           1.5248   -0.2091   -0.4597 N.3     1  UNL1       -0.3018
      5 N          -2.6937   -0.1942   -0.2158 N.am    1  UNL1       -0.2547
      6 C          -1.3370   -0.5901    0.0822 C.3     1  UNL1        0.1408
      7 C          -0.5391    0.5866    0.6520 C.3     1  UNL1       -0.0078
      8 C          -0.6502   -1.1598   -1.1628 C.3     1  UNL1       -0.0078
      9 C           0.9488    0.2577    0.8078 C.3     1  UNL1        0.0014
     10 C           0.8420   -1.4193   -0.9349 C.3     1  UNL1        0.0014
     11 C           2.9586   -0.4570   -0.3089 C.3     1  UNL1        0.0029
     12 C          -1.5430   -1.6572    1.1218 C.2     1  UNL1        0.3312
     13 C          -3.0555    1.2009    0.0241 C.ar    1  UNL1        0.0374
     14 C           3.7481    0.8518   -0.3497 C.3     1  UNL1       -0.0149
     15 C          -3.6470   -1.0712   -0.8151 C.2     1  UNL1        0.2205
     16 C          -5.0396   -0.4764   -1.0040 C.3     1  UNL1        0.0217
     17 C           5.2303    0.6085   -0.2173 C.ar    1  UNL1       -0.0462
     18 C          -3.6442    1.5708    1.2333 C.ar    1  UNL1       -0.0402
     19 C          -2.8124    2.1629   -0.9561 C.ar    1  UNL1       -0.0402
     20 C          -6.0169   -1.4537   -1.6396 C.3     1  UNL1       -0.0570
     21 C          -1.1883   -3.9530    1.5545 C.3     1  UNL1        0.0817
     22 C          -3.9899    2.9026    1.4624 C.ar    1  UNL1       -0.0600
     23 C          -3.1580    3.4948   -0.7271 C.ar    1  UNL1       -0.0600
     24 C           5.8239    0.5881    1.0448 C.ar    1  UNL1       -0.0585
     25 C           6.0077    0.4032   -1.3570 C.ar    1  UNL1       -0.0585
     26 C          -3.7468    3.8646    0.4822 C.ar    1  UNL1       -0.0616
     27 C           7.1950    0.3623    1.1672 C.ar    1  UNL1       -0.0615
     28 C           7.3787    0.1774   -1.2347 C.ar    1  UNL1       -0.0615
     29 C           7.9723    0.1570    0.0275 C.ar    1  UNL1       -0.0617
     30 H          -0.5637    1.4592   -0.0099 H       1  UNL1        0.0304
     31 H          -0.9114    0.9015    1.6351 H       1  UNL1        0.0304
     32 H          -1.1049   -2.0772   -1.5518 H       1  UNL1        0.0304
     33 H          -0.7473   -0.4309   -1.9813 H       1  UNL1        0.0304
     34 H           1.0784   -0.4947    1.5971 H       1  UNL1        0.0427
     35 H           1.4468    1.1697    1.1535 H       1  UNL1        0.0427
     36 H           1.0201   -2.2554   -0.2503 H       1  UNL1        0.0427
     37 H           1.2678   -1.7172   -1.9019 H       1  UNL1        0.0427
     38 H           3.1756   -1.0257    0.6055 H       1  UNL1        0.0430
     39 H           3.3165   -1.0779   -1.1419 H       1  UNL1        0.0430
     40 H           3.4403    1.5371    0.4484 H       1  UNL1        0.0326
     41 H           3.5501    1.3843   -1.2896 H       1  UNL1        0.0326
     42 H          -4.9744    0.4050   -1.6495 H       1  UNL1        0.0356
     43 H          -5.4388   -0.1802   -0.0289 H       1  UNL1        0.0356
     44 H          -3.8394    0.8298    2.0039 H       1  UNL1        0.0636
     45 H          -2.3572    1.8852   -1.9032 H       1  UNL1        0.0636
     46 H          -6.9993   -0.9862   -1.7583 H       1  UNL1        0.0234
     47 H          -6.1375   -2.3487   -1.0203 H       1  UNL1        0.0234
     48 H          -5.6683   -1.7720   -2.6277 H       1  UNL1        0.0234
     49 H          -0.6363   -3.7607    2.4794 H       1  UNL1        0.0661
     50 H          -2.2446   -4.1441    1.7662 H       1  UNL1        0.0661
     51 H          -0.7624   -4.8344    1.0680 H       1  UNL1        0.0661
     52 H          -4.4485    3.1904    2.4039 H       1  UNL1        0.0618
     53 H          -2.9693    4.2437   -1.4907 H       1  UNL1        0.0618
     54 H           5.2283    0.7446    1.9403 H       1  UNL1        0.0620
     55 H           5.5565    0.4148   -2.3456 H       1  UNL1        0.0620
     56 H          -4.0161    4.9016    0.6603 H       1  UNL1        0.0618
     57 H           7.6572    0.3457    2.1499 H       1  UNL1        0.0618
     58 H           7.9841    0.0170   -2.1220 H       1  UNL1        0.0618
     59 H           9.0398   -0.0191    0.1226 H       1  UNL1        0.0618
@<TRIPOS>BOND
     1     1    12    1
     2     1    21    1
     3     2    12    2
     4     3    15    2
     5     4     9    1
     6     4    10    1
     7     4    11    1
     8     5     6    1
     9     5    13    1
    10     5    15   am
    11     6     7    1
    12     6     8    1
    13     6    12    1
    14     7     9    1
    15     7    30    1
    16     7    31    1
    17     8    10    1
    18     8    32    1
    19     8    33    1
    20     9    34    1
    21     9    35    1
    22    10    36    1
    23    10    37    1
    24    11    14    1
    25    11    38    1
    26    11    39    1
    27    13    18   ar
    28    13    19   ar
    29    14    17    1
    30    14    40    1
    31    14    41    1
    32    15    16    1
    33    16    20    1
    34    16    42    1
    35    16    43    1
    36    17    24   ar
    37    17    25   ar
    38    18    22   ar
    39    18    44    1
    40    19    23   ar
    41    19    45    1
    42    20    46    1
    43    20    47    1
    44    20    48    1
    45    21    49    1
    46    21    50    1
    47    21    51    1
    48    22    26   ar
    49    22    52    1
    50    23    26   ar
    51    23    53    1
    52    24    27   ar
    53    24    54    1
    54    25    28   ar
    55    25    55    1
    56    26    56    1
    57    27    29   ar
    58    27    57    1
    59    28    29   ar
    60    28    58    1
    61    29    59    1
@<TRIPOS>MOLECULE
165361602
 56 58 0 0 0
SMALL
GASTEIGER

@<TRIPOS>ATOM
      1 O          -2.4724   -1.6380    1.7580 O.3     1  UNL1       -0.4664
      2 O          -1.0463   -2.9496    0.5001 O.2     1  UNL1       -0.2484
      3 O          -2.9820   -2.3340   -1.9124 O.2     1  UNL1       -0.2755
      4 N           1.3929    0.2191    0.0169 N.3     1  UNL1       -0.3018
      5 N          -2.7480   -0.3850   -0.5749 N.am    1  UNL1       -0.2549
      6 C          -1.4139   -0.6355   -0.0780 C.3     1  UNL1        0.1408
      7 C          -0.9384    0.5276    0.7968 C.3     1  UNL1       -0.0078
      8 C          -0.4389   -0.8838   -1.2337 C.3     1  UNL1       -0.0078
      9 C           0.5342    0.3819    1.1972 C.3     1  UNL1        0.0014
     10 C           1.0134   -0.9738   -0.7512 C.3     1  UNL1        0.0014
     11 C           2.7988    0.1452    0.4140 C.3     1  UNL1        0.0029
     12 C          -1.6023   -1.8859    0.7381 C.2     1  UNL1        0.3312
     13 C          -3.3763    0.8831   -0.2113 C.ar    1  UNL1        0.0374
     14 C           3.7008    0.5185   -0.7620 C.3     1  UNL1       -0.0149
     15 C          -3.4199   -1.2727   -1.4611 C.2     1  UNL1        0.2176
     16 C           5.1594    0.4414   -0.3868 C.ar    1  UNL1       -0.0462
     17 C          -4.2113    0.9536    0.9038 C.ar    1  UNL1       -0.0402
     18 C          -3.1413    2.0231   -0.9799 C.ar    1  UNL1       -0.0402
     19 C          -4.8279   -0.8726   -1.8379 C.3     1  UNL1        0.0127
     20 C          -2.7438   -2.7484    2.6189 C.3     1  UNL1        0.0817
     21 C          -4.8114    2.1642    1.2501 C.ar    1  UNL1       -0.0600
     22 C          -3.7413    3.2337   -0.6334 C.ar    1  UNL1       -0.0600
     23 C           5.8057    1.5632    0.1322 C.ar    1  UNL1       -0.0585
     24 C           5.8623   -0.7511   -0.5590 C.ar    1  UNL1       -0.0585
     25 C          -4.5765    3.3042    0.4816 C.ar    1  UNL1       -0.0616
     26 C           7.1549    1.4927    0.4791 C.ar    1  UNL1       -0.0615
     27 C           7.2115   -0.8216   -0.2122 C.ar    1  UNL1       -0.0615
     28 C           7.8578    0.3002    0.3069 C.ar    1  UNL1       -0.0617
     29 H          -1.5193    0.6415    1.7200 H       1  UNL1        0.0304
     30 H          -0.9853    1.4827    0.2613 H       1  UNL1        0.0304
     31 H          -0.6597   -1.8035   -1.7859 H       1  UNL1        0.0304
     32 H          -0.5189   -0.0652   -1.9628 H       1  UNL1        0.0304
     33 H           0.8227    1.2876    1.7454 H       1  UNL1        0.0427
     34 H           0.6526   -0.4638    1.8873 H       1  UNL1        0.0427
     35 H           1.1656   -1.8846   -0.1594 H       1  UNL1        0.0427
     36 H           1.6359   -1.0754   -1.6463 H       1  UNL1        0.0427
     37 H           2.9982    0.8647    1.2203 H       1  UNL1        0.0430
     38 H           3.0539   -0.8432    0.8193 H       1  UNL1        0.0430
     39 H           3.5383   -0.1341   -1.6273 H       1  UNL1        0.0326
     40 H           3.4685    1.5339   -1.1105 H       1  UNL1        0.0326
     41 H          -4.4158    0.0739    1.5064 H       1  UNL1        0.0636
     42 H          -2.4949    1.9784   -1.8526 H       1  UNL1        0.0636
     43 H          -4.8340    0.0837   -2.3663 H       1  UNL1        0.0323
     44 H          -5.4671   -0.8300   -0.9528 H       1  UNL1        0.0323
     45 H          -5.2462   -1.6255   -2.5142 H       1  UNL1        0.0323
     46 H          -3.4495   -2.4187    3.3859 H       1  UNL1        0.0661
     47 H          -3.1987   -3.5652    2.0505 H       1  UNL1        0.0661
     48 H          -1.8235   -3.0820    3.1076 H       1  UNL1        0.0661
     49 H          -5.4640    2.2186    2.1166 H       1  UNL1        0.0618
     50 H          -3.5589    4.1212   -1.2323 H       1  UNL1        0.0618
     51 H           5.2684    2.4974    0.2727 H       1  UNL1        0.0620
     52 H           5.3692   -1.6324   -0.9605 H       1  UNL1        0.0620
     53 H          -5.0444    4.2466    0.7508 H       1  UNL1        0.0618
     54 H           7.6581    2.3660    0.8837 H       1  UNL1        0.0618
     55 H           7.7588   -1.7502   -0.3456 H       1  UNL1        0.0618
     56 H           8.9083    0.2452    0.5772 H       1  UNL1        0.0618
@<TRIPOS>BOND
     1     1    12    1
     2     1    20    1
     3     2    12    2
     4     3    15    2
     5     4     9    1
     6     4    10    1
     7     4    11    1
     8     5     6    1
     9     5    13    1
    10     5    15   am
    11     6     7    1
    12     6     8    1
    13     6    12    1
    14     7     9    1
    15     7    29    1
    16     7    30    1
    17     8    10    1
    18     8    31    1
    19     8    32    1
    20     9    33    1
    21     9    34    1
    22    10    35    1
    23    10    36    1
    24    11    14    1
    25    11    37    1
    26    11    38    1
    27    13    17   ar
    28    13    18   ar
    29    14    16    1
    30    14    39    1
    31    14    40    1
    32    15    19    1
    33    16    23   ar
    34    16    24   ar
    35    17    21   ar
    36    17    41    1
    37    18    22   ar
    38    18    42    1
    39    19    43    1
    40    19    44    1
    41    19    45    1
    42    20    46    1
    43    20    47    1
    44    20    48    1
    45    21    25   ar
    46    21    49    1
    47    22    25   ar
    48    22    50    1
    49    23    26   ar
    50    23    51    1
    51    24    27   ar
    52    24    52    1
    53    25    53    1
    54    26    28   ar
    55    26    54    1
    56    27    28   ar
    57    27    55    1
    58    28    56    1
@<TRIPOS>MOLECULE
155520187
 60 62 0 0 0
SMALL
GASTEIGER

@<TRIPOS>ATOM
      1 O          -2.0755   -0.8802    2.2843 O.3     1  UNL1       -0.4664
      2 O          -0.8040   -2.5270    1.2805 O.2     1  UNL1       -0.2484
      3 O          -2.8213   -2.2936   -1.1352 O.2     1  UNL1       -0.2751
      4 O          -5.4978   -2.9276   -1.1321 O.3     1  UNL1       -0.3945
      5 N           1.7908    0.2853    0.0229 N.3     1  UNL1       -0.3018
      6 N          -2.4057   -0.1355   -0.2503 N.am    1  UNL1       -0.2546
      7 C          -1.0633   -0.3687    0.2325 C.3     1  UNL1        0.1408
      8 C          -0.4702    0.9171    0.8149 C.3     1  UNL1       -0.0078
      9 C          -0.1716   -0.9254   -0.8823 C.3     1  UNL1       -0.0078
     10 C           1.0111    0.7558    1.1751 C.3     1  UNL1        0.0014
     11 C           1.2975   -1.0136   -0.4530 C.3     1  UNL1        0.0014
     12 C           3.2098    0.1980    0.3673 C.3     1  UNL1        0.0029
     13 C          -1.2806   -1.4004    1.3064 C.2     1  UNL1        0.3312
     14 C          -2.9327    1.2231   -0.1419 C.ar    1  UNL1        0.0374
     15 C          -3.1839   -1.1372   -0.9050 C.2     1  UNL1        0.2229
     16 C           4.0652    0.2479   -0.8983 C.3     1  UNL1       -0.0149
     17 C          -4.5965   -0.7025   -1.2966 C.3     1  UNL1        0.0477
     18 C           5.5352    0.1490   -0.5769 C.ar    1  UNL1       -0.0462
     19 C          -3.7030    1.5865    0.9626 C.ar    1  UNL1       -0.0402
     20 C          -2.6659    2.1563   -1.1436 C.ar    1  UNL1       -0.0402
     21 C          -5.3928   -1.8004   -1.9923 C.3     1  UNL1        0.0525
     22 C          -2.3646   -1.7601    3.3752 C.3     1  UNL1        0.0817
     23 C          -4.2065    2.8833    1.0654 C.ar    1  UNL1       -0.0600
     24 C          -3.1693    3.4530   -1.0409 C.ar    1  UNL1       -0.0600
     25 C           6.2761    1.3068   -0.3398 C.ar    1  UNL1       -0.0585
     26 C           6.1542   -1.0996   -0.5170 C.ar    1  UNL1       -0.0585
     27 C          -3.9397    3.8166    0.0637 C.ar    1  UNL1       -0.0616
     28 C           7.6360    1.2161   -0.0428 C.ar    1  UNL1       -0.0615
     29 C           7.5140   -1.1903   -0.2199 C.ar    1  UNL1       -0.0615
     30 C           8.2549   -0.0325    0.0172 C.ar    1  UNL1       -0.0617
     31 H          -0.9904    1.2658    1.7152 H       1  UNL1        0.0304
     32 H          -0.4881    1.7374    0.0884 H       1  UNL1        0.0304
     33 H          -0.2430   -0.2772   -1.7670 H       1  UNL1        0.0304
     34 H          -0.4770   -1.9238   -1.2128 H       1  UNL1        0.0304
     35 H           1.1169    0.0699    2.0259 H       1  UNL1        0.0427
     36 H           1.3841    1.7346    1.5024 H       1  UNL1        0.0427
     37 H           1.8615   -1.3471   -1.3303 H       1  UNL1        0.0427
     38 H           1.4276   -1.7862    0.3146 H       1  UNL1        0.0427
     39 H           3.4971    1.0564    0.9901 H       1  UNL1        0.0430
     40 H           3.4272   -0.6971    0.9653 H       1  UNL1        0.0430
     41 H           3.8153   -0.5606   -1.5948 H       1  UNL1        0.0326
     42 H           3.8752    1.1797   -1.4478 H       1  UNL1        0.0326
     43 H          -5.1288   -0.4190   -0.3822 H       1  UNL1        0.0381
     44 H          -4.5429    0.1574   -1.9708 H       1  UNL1        0.0381
     45 H          -3.9310    0.8700    1.7460 H       1  UNL1        0.0636
     46 H          -2.0698    1.8825   -2.0104 H       1  UNL1        0.0636
     47 H          -4.8971   -2.1229   -2.9133 H       1  UNL1        0.0562
     48 H          -6.4003   -1.4550   -2.2435 H       1  UNL1        0.0562
     49 H          -3.0041   -1.2253    4.0824 H       1  UNL1        0.0661
     50 H          -2.9001   -2.6441    3.0161 H       1  UNL1        0.0661
     51 H          -1.4400   -2.0475    3.8848 H       1  UNL1        0.0661
     52 H          -4.8087    3.1656    1.9240 H       1  UNL1        0.0618
     53 H          -2.9623    4.1793   -1.8213 H       1  UNL1        0.0618
     54 H           5.8048    2.2851   -0.3819 H       1  UNL1        0.0620
     55 H           5.5870   -2.0089   -0.6977 H       1  UNL1        0.0620
     56 H          -4.3324    4.8260    0.1433 H       1  UNL1        0.0618
     57 H           8.2128    2.1175    0.1423 H       1  UNL1        0.0618
     58 H           7.9959   -2.1625   -0.1726 H       1  UNL1        0.0618
     59 H           9.3136   -0.1032    0.2487 H       1  UNL1        0.0618
     60 H          -5.9566   -2.6387   -0.3248 H       1  UNL1        0.2094
@<TRIPOS>BOND
     1     1    13    1
     2     1    22    1
     3     2    13    2
     4     3    15    2
     5     4    21    1
     6     4    60    1
     7     5    10    1
     8     5    11    1
     9     5    12    1
    10     6     7    1
    11     6    14    1
    12     6    15   am
    13     7     8    1
    14     7     9    1
    15     7    13    1
    16     8    10    1
    17     8    31    1
    18     8    32    1
    19     9    11    1
    20     9    33    1
    21     9    34    1
    22    10    35    1
    23    10    36    1
    24    11    37    1
    25    11    38    1
    26    12    16    1
    27    12    39    1
    28    12    40    1
    29    14    19   ar
    30    14    20   ar
    31    15    17    1
    32    16    18    1
    33    16    41    1
    34    16    42    1
    35    17    21    1
    36    17    43    1
    37    17    44    1
    38    18    25   ar
    39    18    26   ar
    40    19    23   ar
    41    19    45    1
    42    20    24   ar
    43    20    46    1
    44    21    47    1
    45    21    48    1
    46    22    49    1
    47    22    50    1
    48    22    51    1
    49    23    27   ar
    50    23    52    1
    51    24    27   ar
    52    24    53    1
    53    25    28   ar
    54    25    54    1
    55    26    29   ar
    56    26    55    1
    57    27    56    1
    58    28    30   ar
    59    28    57    1
    60    29    30   ar
    61    29    58    1
    62    30    59    1
@<TRIPOS>MOLECULE
155564874
 60 62 0 0 0
SMALL
GASTEIGER

@<TRIPOS>ATOM
      1 O          -2.5568   -1.2751    2.1055 O.3     1  UNL1       -0.4664
      2 O          -1.2166   -2.7712    0.9645 O.2     1  UNL1       -0.2484
      3 O          -3.2227   -2.3844   -1.4418 O.2     1  UNL1       -0.2752
      4 O           9.0775    0.0949    0.3374 O.3     1  UNL1       -0.5068
      5 N           1.2794    0.2415    0.0070 N.3     1  UNL1       -0.3018
      6 N          -2.8961   -0.3060   -0.3509 N.am    1  UNL1       -0.2547
      7 C          -1.5494   -0.5342    0.1224 C.3     1  UNL1        0.1408
      8 C          -0.6291   -0.9494   -1.0301 C.3     1  UNL1       -0.0078
      9 C          -1.0097    0.7115    0.8303 C.3     1  UNL1       -0.0078
     10 C           0.8390   -1.0237   -0.5950 C.3     1  UNL1        0.0014
     11 C           0.4740    0.5715    1.1899 C.3     1  UNL1        0.0014
     12 C           2.6981    0.1743    0.3571 C.3     1  UNL1        0.0029
     13 C          -1.7356   -1.6705    1.0915 C.2     1  UNL1        0.3312
     14 C          -3.4749    1.0157   -0.1205 C.ar    1  UNL1        0.0374
     15 C           3.5604    0.3755   -0.8886 C.3     1  UNL1       -0.0149
     16 C          -3.6296   -1.2693   -1.1062 C.2     1  UNL1        0.2205
     17 C          -5.0526   -0.8551   -1.4695 C.3     1  UNL1        0.0217
     18 C           5.0307    0.3008   -0.5619 C.ar    1  UNL1       -0.0459
     19 C          -4.2674    1.2437    1.0046 C.ar    1  UNL1       -0.0402
     20 C          -3.2347    2.0495   -1.0254 C.ar    1  UNL1       -0.0402
     21 C          -5.7908   -1.9193   -2.2676 C.3     1  UNL1       -0.0570
     22 C          -2.8206   -2.2646    3.1051 C.3     1  UNL1        0.0817
     23 C          -4.8195    2.5056    1.2246 C.ar    1  UNL1       -0.0600
     24 C          -3.7869    3.3114   -0.8055 C.ar    1  UNL1       -0.0600
     25 C           5.7264    1.4567   -0.2079 C.ar    1  UNL1       -0.0551
     26 C           5.6949   -0.9246   -0.6137 C.ar    1  UNL1       -0.0551
     27 C          -4.5793    3.5394    0.3195 C.ar    1  UNL1       -0.0616
     28 C           7.0863    1.3873    0.0943 C.ar    1  UNL1       -0.0199
     29 C           7.0549   -0.9941   -0.3117 C.ar    1  UNL1       -0.0199
     30 C           7.7506    0.1620    0.0424 C.ar    1  UNL1        0.1169
     31 H          -0.7183   -0.2233   -1.8503 H       1  UNL1        0.0304
     32 H          -0.8940   -1.9225   -1.4569 H       1  UNL1        0.0304
     33 H          -1.5494    0.9538    1.7537 H       1  UNL1        0.0304
     34 H          -1.0530    1.5958    0.1845 H       1  UNL1        0.0304
     35 H           1.4218   -1.2514   -1.4937 H       1  UNL1        0.0427
     36 H           0.9925   -1.8603    0.0975 H       1  UNL1        0.0427
     37 H           0.8073    1.5279    1.6123 H       1  UNL1        0.0427
     38 H           0.5993   -0.1877    1.9732 H       1  UNL1        0.0427
     39 H           2.9446   -0.7649    0.8702 H       1  UNL1        0.0430
     40 H           2.9482    0.9798    1.0615 H       1  UNL1        0.0430
     41 H           3.3462   -0.3717   -1.6612 H       1  UNL1        0.0326
     42 H           3.3396    1.3478   -1.3494 H       1  UNL1        0.0326
     43 H          -5.0234    0.0590   -2.0705 H       1  UNL1        0.0356
     44 H          -5.6166   -0.6648   -0.5510 H       1  UNL1        0.0356
     45 H          -4.4749    0.4478    1.7135 H       1  UNL1        0.0636
     46 H          -2.6216    1.8818   -1.9071 H       1  UNL1        0.0636
     47 H          -5.8691   -2.8529   -1.7006 H       1  UNL1        0.0234
     48 H          -6.8033   -1.5804   -2.5080 H       1  UNL1        0.0234
     49 H          -5.2715   -2.1377   -3.2066 H       1  UNL1        0.0234
     50 H          -3.4857   -1.8235    3.8522 H       1  UNL1        0.0661
     51 H          -3.3189   -3.1300    2.6581 H       1  UNL1        0.0661
     52 H          -1.8897   -2.5642    3.5958 H       1  UNL1        0.0661
     53 H          -5.4387    2.6825    2.0991 H       1  UNL1        0.0618
     54 H          -3.6005    4.1161   -1.5107 H       1  UNL1        0.0618
     55 H           5.2194    2.4169   -0.1622 H       1  UNL1        0.0621
     56 H           5.1631   -1.8324   -0.8861 H       1  UNL1        0.0621
     57 H          -5.0099    4.5217    0.4904 H       1  UNL1        0.0618
     58 H           7.6228    2.2912    0.3698 H       1  UNL1        0.0654
     59 H           7.5608   -1.9549   -0.3553 H       1  UNL1        0.0654
     60 H           9.3731   -0.8277    0.2512 H       1  UNL1        0.2921
@<TRIPOS>BOND
     1     1    13    1
     2     1    22    1
     3     2    13    2
     4     3    16    2
     5     4    30    1
     6     4    60    1
     7     5    10    1
     8     5    11    1
     9     5    12    1
    10     6     7    1
    11     6    14    1
    12     6    16   am
    13     7     8    1
    14     7     9    1
    15     7    13    1
    16     8    10    1
    17     8    31    1
    18     8    32    1
    19     9    11    1
    20     9    33    1
    21     9    34    1
    22    10    35    1
    23    10    36    1
    24    11    37    1
    25    11    38    1
    26    12    15    1
    27    12    39    1
    28    12    40    1
    29    14    19   ar
    30    14    20   ar
    31    15    18    1
    32    15    41    1
    33    15    42    1
    34    16    17    1
    35    17    21    1
    36    17    43    1
    37    17    44    1
    38    18    25   ar
    39    18    26   ar
    40    19    23   ar
    41    19    45    1
    42    20    24   ar
    43    20    46    1
    44    21    47    1
    45    21    48    1
    46    21    49    1
    47    22    50    1
    48    22    51    1
    49    22    52    1
    50    23    27   ar
    51    23    53    1
    52    24    27   ar
    53    24    54    1
    54    25    28   ar
    55    25    55    1
    56    26    29   ar
    57    26    56    1
    58    27    57    1
    59    28    30   ar
    60    28    58    1
    61    29    30   ar
    62    29    59    1
@<TRIPOS>MOLECULE
155525839
 60 62 0 0 0
SMALL
GASTEIGER

@<TRIPOS>ATOM
      1 O           1.4174   -0.9040    1.6987 O.co2   1  UNL1       -0.7753
      2 O          -2.0389    1.3173   -2.0269 O.3     1  UNL1       -0.4664
      3 O          -0.9523    2.8782   -0.7157 O.2     1  UNL1       -0.2484
      4 O          -3.4242    2.3393    1.2454 O.2     1  UNL1       -0.2752
      5 N           1.5302    0.1227    0.7961 N.3     1  UNL1        0.2175
      6 N          -2.7108    0.2981    0.2766 N.am    1  UNL1       -0.2544
      7 C          -1.3171    0.6359    0.0962 C.3     1  UNL1        0.1480
      8 C          -0.5435   -0.5576   -0.4736 C.3     1  UNL1        0.0198
      9 C          -0.7053    1.1199    1.4149 C.3     1  UNL1        0.0198
     10 C           0.9580   -0.2892   -0.5440 C.3     1  UNL1       -0.0301
     11 C           0.7998    1.3496    1.3003 C.3     1  UNL1       -0.0301
     12 C           2.9908    0.4445    0.6354 C.3     1  UNL1       -0.0286
     13 C          -1.3996    1.7552   -0.9051 C.2     1  UNL1        0.3315
     14 C           3.7887   -0.7810    0.2121 C.3     1  UNL1        0.0126
     15 C          -3.1199   -1.0649   -0.0535 C.ar    1  UNL1        0.0374
     16 C          -3.6614    1.1964    0.8464 C.2     1  UNL1        0.2205
     17 C           5.2562   -0.4921    0.0157 C.ar    1  UNL1       -0.0423
     18 C          -5.0919    0.6684    0.9063 C.3     1  UNL1        0.0217
     19 C          -3.6347   -1.3519   -1.3177 C.ar    1  UNL1       -0.0402
     20 C          -2.9964   -2.0791    0.8960 C.ar    1  UNL1       -0.0402
     21 C           5.7264   -0.0934   -1.2355 C.ar    1  UNL1       -0.0584
     22 C           6.1428   -0.6238    1.0844 C.ar    1  UNL1       -0.0584
     23 C          -2.1873    2.2872   -3.0688 C.3     1  UNL1        0.0817
     24 C          -6.0640    1.6673    1.5158 C.3     1  UNL1       -0.0570
     25 C          -4.0260   -2.6533   -1.6324 C.ar    1  UNL1       -0.0600
     26 C          -3.3875   -3.3805    0.5812 C.ar    1  UNL1       -0.0600
     27 C          -3.9024   -3.6676   -0.6829 C.ar    1  UNL1       -0.0616
     28 C           7.0834    0.1735   -1.4181 C.ar    1  UNL1       -0.0615
     29 C           7.4996   -0.3569    0.9019 C.ar    1  UNL1       -0.0615
     30 C           7.9699    0.0417   -0.3492 C.ar    1  UNL1       -0.0617
     31 H          -0.8693   -0.8368   -1.4829 H       1  UNL1        0.0343
     32 H          -0.6453   -1.4435    0.1617 H       1  UNL1        0.0343
     33 H          -0.8959    0.3752    2.1992 H       1  UNL1        0.0343
     34 H          -1.1467    2.0560    1.7709 H       1  UNL1        0.0343
     35 H           1.1935    0.5107   -1.2547 H       1  UNL1        0.0814
     36 H           1.4473   -1.2157   -0.8510 H       1  UNL1        0.0814
     37 H           1.2260    1.5750    2.2848 H       1  UNL1        0.0814
     38 H           1.0472    2.1654    0.6140 H       1  UNL1        0.0814
     39 H           3.0656    1.2559   -0.0981 H       1  UNL1        0.0817
     40 H           3.3342    0.8163    1.6086 H       1  UNL1        0.0817
     41 H           3.6858   -1.5889    0.9476 H       1  UNL1        0.0365
     42 H           3.4262   -1.2050   -0.7291 H       1  UNL1        0.0365
     43 H          -5.1185   -0.2426    1.5121 H       1  UNL1        0.0356
     44 H          -5.4316    0.4367   -0.1080 H       1  UNL1        0.0356
     45 H          -3.7531   -0.5743   -2.0658 H       1  UNL1        0.0636
     46 H          -2.5996   -1.8657    1.8851 H       1  UNL1        0.0636
     47 H           5.0454    0.0154   -2.0755 H       1  UNL1        0.0620
     48 H           5.7879   -0.9317    2.0644 H       1  UNL1        0.0620
     49 H          -2.7105    1.8120   -3.9028 H       1  UNL1        0.0661
     50 H          -2.7845    3.1331   -2.7154 H       1  UNL1        0.0661
     51 H          -1.2055    2.6237   -3.4152 H       1  UNL1        0.0661
     52 H          -6.0938    2.5936    0.9326 H       1  UNL1        0.0234
     53 H          -7.0744    1.2476    1.5413 H       1  UNL1        0.0234
     54 H          -5.7743    1.9232    2.5403 H       1  UNL1        0.0234
     55 H          -4.4302   -2.8761   -2.6155 H       1  UNL1        0.0618
     56 H          -3.2920   -4.1700    1.3208 H       1  UNL1        0.0618
     57 H          -4.2079   -4.6807   -0.9276 H       1  UNL1        0.0618
     58 H           7.4496    0.4845   -2.3921 H       1  UNL1        0.0618
     59 H           8.1900   -0.4589    1.7342 H       1  UNL1        0.0618
     60 H           9.0264    0.2498   -0.4912 H       1  UNL1        0.0618
@<TRIPOS>UNITY_ATOM_ATTR
1 1
charge -1
5 1
charge 1
@<TRIPOS>BOND
     1     1     5    1
     2     2    13    1
     3     2    23    1
     4     3    13    2
     5     4    16    2
     6     5    10    1
     7     5    11    1
     8     5    12    1
     9     6     7    1
    10     6    15    1
    11     6    16   am
    12     7     8    1
    13     7     9    1
    14     7    13    1
    15     8    10    1
    16     8    31    1
    17     8    32    1
    18     9    11    1
    19     9    33    1
    20     9    34    1
    21    10    35    1
    22    10    36    1
    23    11    37    1
    24    11    38    1
    25    12    14    1
    26    12    39    1
    27    12    40    1
    28    14    17    1
    29    14    41    1
    30    14    42    1
    31    15    19   ar
    32    15    20   ar
    33    16    18    1
    34    17    21   ar
    35    17    22   ar
    36    18    24    1
    37    18    43    1
    38    18    44    1
    39    19    25   ar
    40    19    45    1
    41    20    26   ar
    42    20    46    1
    43    21    28   ar
    44    21    47    1
    45    22    29   ar
    46    22    48    1
    47    23    49    1
    48    23    50    1
    49    23    51    1
    50    24    52    1
    51    24    53    1
    52    24    54    1
    53    25    27   ar
    54    25    55    1
    55    26    27   ar
    56    26    56    1
    57    27    57    1
    58    28    30   ar
    59    28    58    1
    60    29    30   ar
    61    29    59    1
    62    30    60    1
@<TRIPOS>MOLECULE
2724433
 56 58 0 0 0
SMALL
GASTEIGER

@<TRIPOS>ATOM
      1 O          -0.1479    2.6302    0.8288 O.3     1  UNL1       -0.4664
      2 O          -1.8714    1.7229    2.0712 O.2     1  UNL1       -0.2484
      3 O          -2.0505    2.3392   -1.4508 O.2     1  UNL1       -0.2752
      4 N           1.9534   -0.6012    0.8117 N.3     1  UNL1       -0.2980
      5 N          -2.0268    0.2584   -0.3173 N.am    1  UNL1       -0.2547
      6 C          -0.7664    0.4168    0.3703 C.3     1  UNL1        0.1408
      7 C          -0.4739   -0.7974    1.2572 C.3     1  UNL1       -0.0078
      8 C           0.3728    0.6476   -0.6272 C.3     1  UNL1       -0.0078
      9 C           0.9342   -0.7512    1.8582 C.3     1  UNL1        0.0017
     10 C           1.7471    0.6364    0.0486 C.3     1  UNL1        0.0017
     11 C          -1.0148    1.6457    1.2009 C.2     1  UNL1        0.3312
     12 C           3.2939   -0.6232    1.3969 C.3     1  UNL1        0.0240
     13 C          -2.7803   -0.9767   -0.1151 C.ar    1  UNL1        0.0374
     14 C          -2.5700    1.2524   -1.1849 C.2     1  UNL1        0.2205
     15 C           4.3672   -0.5496    0.3435 C.ar    1  UNL1       -0.0334
     16 C          -3.9349    0.9143   -1.7778 C.3     1  UNL1        0.0217
     17 C          -2.5321   -2.0143   -0.9638 C.ar    1  UNL1       -0.0402
     18 C          -3.6798   -1.0079    0.9090 C.ar    1  UNL1       -0.0402
     19 C           4.8655   -1.7221   -0.2072 C.ar    1  UNL1       -0.0573
     20 C           4.8426    0.6895   -0.0625 C.ar    1  UNL1       -0.0573
     21 C          -4.4600    1.9994   -2.7055 C.3     1  UNL1       -0.0570
     22 C          -0.2752    3.8637    1.5431 C.3     1  UNL1        0.0817
     23 C          -3.2512   -3.1938   -0.7707 C.ar    1  UNL1       -0.0600
     24 C          -4.3986   -2.1876    1.1022 C.ar    1  UNL1       -0.0600
     25 C          -4.1843   -3.2806    0.2623 C.ar    1  UNL1       -0.0616
     26 C           5.8596   -1.6540   -1.1833 C.ar    1  UNL1       -0.0615
     27 C           5.8367    0.7575   -1.0387 C.ar    1  UNL1       -0.0615
     28 C           6.3451   -0.4144   -1.5991 C.ar    1  UNL1       -0.0617
     29 H          -0.5164   -1.7350    0.6903 H       1  UNL1        0.0304
     30 H          -1.1811   -0.8807    2.0918 H       1  UNL1        0.0304
     31 H           0.2716    1.5670   -1.2157 H       1  UNL1        0.0304
     32 H           0.3531   -0.1621   -1.3723 H       1  UNL1        0.0304
     33 H           1.1002   -1.6869    2.4064 H       1  UNL1        0.0427
     34 H           1.0001    0.0658    2.5889 H       1  UNL1        0.0427
     35 H           1.9079    1.5183    0.6774 H       1  UNL1        0.0427
     36 H           2.4452    0.7038   -0.7904 H       1  UNL1        0.0427
     37 H           3.4300    0.1945    2.1188 H       1  UNL1        0.0476
     38 H           3.4355   -1.5493    1.9705 H       1  UNL1        0.0476
     39 H          -4.6599    0.7827   -0.9688 H       1  UNL1        0.0356
     40 H          -3.8638   -0.0122   -2.3556 H       1  UNL1        0.0356
     41 H          -1.8065   -1.9466   -1.7675 H       1  UNL1        0.0636
     42 H          -3.8518   -0.1586    1.5610 H       1  UNL1        0.0636
     43 H           4.4931   -2.6928    0.1075 H       1  UNL1        0.0621
     44 H           4.4688    1.6107    0.3757 H       1  UNL1        0.0621
     45 H          -5.4356    1.7141   -3.1112 H       1  UNL1        0.0234
     46 H          -3.7760    2.1646   -3.5445 H       1  UNL1        0.0234
     47 H          -4.5765    2.9496   -2.1737 H       1  UNL1        0.0234
     48 H          -0.0840    3.7053    2.6086 H       1  UNL1        0.0661
     49 H           0.4707    4.5608    1.1522 H       1  UNL1        0.0661
     50 H          -1.2707    4.2899    1.3872 H       1  UNL1        0.0661
     51 H          -3.0842   -4.0447   -1.4247 H       1  UNL1        0.0618
     52 H          -5.1260   -2.2548    1.9059 H       1  UNL1        0.0618
     53 H          -4.7442   -4.1989    0.4126 H       1  UNL1        0.0618
     54 H           6.2553   -2.5663   -1.6200 H       1  UNL1        0.0618
     55 H           6.2173    1.7226   -1.3599 H       1  UNL1        0.0618
     56 H           7.1196   -0.3614   -2.3586 H       1  UNL1        0.0618
@<TRIPOS>BOND
     1     1    11    1
     2     1    22    1
     3     2    11    2
     4     3    14    2
     5     4     9    1
     6     4    10    1
     7     4    12    1
     8     5     6    1
     9     5    13    1
    10     5    14   am
    11     6     7    1
    12     6     8    1
    13     6    11    1
    14     7     9    1
    15     7    29    1
    16     7    30    1
    17     8    10    1
    18     8    31    1
    19     8    32    1
    20     9    33    1
    21     9    34    1
    22    10    35    1
    23    10    36    1
    24    12    15    1
    25    12    37    1
    26    12    38    1
    27    13    17   ar
    28    13    18   ar
    29    14    16    1
    30    15    19   ar
    31    15    20   ar
    32    16    21    1
    33    16    39    1
    34    16    40    1
    35    17    23   ar
    36    17    41    1
    37    18    24   ar
    38    18    42    1
    39    19    26   ar
    40    19    43    1
    41    20    27   ar
    42    20    44    1
    43    21    45    1
    44    21    46    1
    45    21    47    1
    46    22    48    1
    47    22    49    1
    48    22    50    1
    49    23    25   ar
    50    23    51    1
    51    24    25   ar
    52    24    52    1
    53    25    53    1
    54    26    28   ar
    55    26    54    1
    56    27    28   ar
    57    27    55    1
    58    28    56    1
@<TRIPOS>MOLECULE
12298146
 51 53 0 0 0
SMALL
GASTEIGER

@<TRIPOS>ATOM
      1 O          -2.3315    2.7261   -0.4783 O.3     1  UNL1       -0.4664
      2 O          -1.7416    1.8020    1.5550 O.2     1  UNL1       -0.2484
      3 N           1.0908   -0.4524   -0.1602 N.3     1  UNL1       -0.3018
      4 N          -2.9765    0.2587   -1.0583 N.pl3   1  UNL1       -0.3289
      5 C          -1.6804    0.4750   -0.4587 C.3     1  UNL1        0.1320
      6 C          -1.2965   -0.6996    0.4465 C.3     1  UNL1       -0.0084
      7 C          -0.6139    0.7026   -1.5343 C.3     1  UNL1       -0.0084
      8 C           0.1448   -0.5943    0.9539 C.3     1  UNL1        0.0014
      9 C           0.8002    0.7522   -0.9482 C.3     1  UNL1        0.0014
     10 C           2.4657   -0.4177    0.3381 C.3     1  UNL1        0.0029
     11 C          -1.9118    1.7244    0.3458 C.2     1  UNL1        0.3306
     12 C           3.4668   -0.3977   -0.8177 C.3     1  UNL1       -0.0149
     13 C          -3.9733   -0.4965   -0.4694 C.ar    1  UNL1        0.0279
     14 C           4.8893   -0.3845   -0.3175 C.ar    1  UNL1       -0.0462
     15 C          -4.4950   -1.6373   -1.1114 C.ar    1  UNL1       -0.0408
     16 C          -4.4983   -0.1483    0.7912 C.ar    1  UNL1       -0.0408
     17 C          -2.5911    3.9800    0.1607 C.3     1  UNL1        0.0817
     18 C           5.5173    0.8295   -0.0826 C.ar    1  UNL1       -0.0585
     19 C           5.5462   -1.5863   -0.1001 C.ar    1  UNL1       -0.0585
     20 C          -5.5012   -2.3989   -0.5173 C.ar    1  UNL1       -0.0600
     21 C          -5.5044   -0.9100    1.3854 C.ar    1  UNL1       -0.0600
     22 C          -6.0059   -2.0354    0.7311 C.ar    1  UNL1       -0.0616
     23 C           6.8331    0.8419    0.3803 C.ar    1  UNL1       -0.0615
     24 C           6.8619   -1.5738    0.3629 C.ar    1  UNL1       -0.0615
     25 C           7.5053   -0.3597    0.6030 C.ar    1  UNL1       -0.0617
     26 H          -1.3963   -1.6444   -0.1068 H       1  UNL1        0.0304
     27 H          -1.9426   -0.7861    1.3278 H       1  UNL1        0.0304
     28 H          -0.7980    1.6225   -2.1034 H       1  UNL1        0.0304
     29 H          -0.6597   -0.1150   -2.2681 H       1  UNL1        0.0304
     30 H           0.2478    0.2362    1.6626 H       1  UNL1        0.0427
     31 H           0.3696   -1.5131    1.5101 H       1  UNL1        0.0427
     32 H           1.4579    0.8436   -1.8160 H       1  UNL1        0.0427
     33 H           0.9243    1.6603   -0.3441 H       1  UNL1        0.0427
     34 H           2.6545   -1.3120    0.9468 H       1  UNL1        0.0430
     35 H           2.6248    0.4489    0.9943 H       1  UNL1        0.0430
     36 H          -2.9895    0.2438   -2.0750 H       1  UNL1        0.1471
     37 H           3.3584    0.4821   -1.4596 H       1  UNL1        0.0326
     38 H           3.3147   -1.2677   -1.4702 H       1  UNL1        0.0326
     39 H          -4.1116   -1.9358   -2.0848 H       1  UNL1        0.0636
     40 H          -4.1515    0.7331    1.3214 H       1  UNL1        0.0636
     41 H          -3.3891    3.8691    0.9010 H       1  UNL1        0.0661
     42 H          -2.9174    4.6900   -0.6039 H       1  UNL1        0.0661
     43 H          -1.6789    4.3620    0.6288 H       1  UNL1        0.0661
     44 H           5.0019    1.7709   -0.2500 H       1  UNL1        0.0620
     45 H           5.0529   -2.5368   -0.2823 H       1  UNL1        0.0620
     46 H          -5.8915   -3.2751   -1.0265 H       1  UNL1        0.0618
     47 H          -5.9014   -0.6243    2.3550 H       1  UNL1        0.0618
     48 H          -6.7901   -2.6277    1.1933 H       1  UNL1        0.0618
     49 H           7.3338    1.7871    0.5681 H       1  UNL1        0.0618
     50 H           7.3854   -2.5093    0.5370 H       1  UNL1        0.0618
     51 H           8.5296   -0.3500    0.9638 H       1  UNL1        0.0618
@<TRIPOS>BOND
     1     1    11    1
     2     1    17    1
     3     2    11    2
     4     3     8    1
     5     3     9    1
     6     3    10    1
     7     4     5    1
     8     4    13    1
     9     4    36    1
    10     5     6    1
    11     5     7    1
    12     5    11    1
    13     6     8    1
    14     6    26    1
    15     6    27    1
    16     7     9    1
    17     7    28    1
    18     7    29    1
    19     8    30    1
    20     8    31    1
    21     9    32    1
    22     9    33    1
    23    10    12    1
    24    10    34    1
    25    10    35    1
    26    12    14    1
    27    12    37    1
    28    12    38    1
    29    13    15   ar
    30    13    16   ar
    31    14    18   ar
    32    14    19   ar
    33    15    20   ar
    34    15    39    1
    35    16    21   ar
    36    16    40    1
    37    17    41    1
    38    17    42    1
    39    17    43    1
    40    18    23   ar
    41    18    44    1
    42    19    24   ar
    43    19    45    1
    44    20    22   ar
    45    20    46    1
    46    21    22   ar
    47    21    47    1
    48    22    48    1
    49    23    25   ar
    50    23    49    1
    51    24    25   ar
    52    24    50    1
    53    25    51    1
