@<TRIPOS>MOLECULE
5284371
 43 47 0 0 0
SMALL
GASTEIGER

@<TRIPOS>ATOM
      1 O          -1.5926   -1.0371    1.1890 O.3     1  UNL1       -0.4811
      2 O          -1.8298   -3.2224   -0.2208 O.3     1  UNL1       -0.3841
      3 O          -3.7490    0.7880    0.5181 O.3     1  UNL1       -0.4914
      4 N           3.2987    0.7132    0.4612 N.3     1  UNL1       -0.3015
      5 C           0.7585   -0.6767    0.6654 C.3     1  UNL1        0.0480
      6 C           1.8071   -1.0215   -0.4031 C.3     1  UNL1        0.0064
      7 C           2.5499    0.3087   -0.7532 C.3     1  UNL1        0.0213
      8 C          -0.3170   -1.7404    0.9876 C.3     1  UNL1        0.1399
      9 C           1.4691   -0.1453    1.9259 C.3     1  UNL1       -0.0263
     10 C          -0.1533    0.3674    0.1106 C.ar    1  UNL1        0.0116
     11 C           1.5897    1.4045   -1.3316 C.3     1  UNL1       -0.0110
     12 C           2.4454    1.0021    1.6181 C.3     1  UNL1       -0.0001
     13 C           0.1967    1.3820   -0.7621 C.ar    1  UNL1       -0.0383
     14 C          -0.4599   -2.8532   -0.0835 C.3     1  UNL1        0.1110
     15 C           1.1865   -1.7246   -1.5833 C.2     1  UNL1       -0.0799
     16 C          -1.4545    0.1347    0.4954 C.ar    1  UNL1        0.1666
     17 C           0.1370   -2.5460   -1.4311 C.2     1  UNL1       -0.0559
     18 C           4.2548    1.7894    0.2223 C.3     1  UNL1       -0.0124
     19 C          -0.8133    2.2630   -1.1520 C.ar    1  UNL1       -0.0546
     20 C          -2.4665    0.9951    0.1305 C.ar    1  UNL1        0.1618
     21 C          -2.1323    2.0799   -0.6902 C.ar    1  UNL1       -0.0160
     22 C          -4.7250    1.7390    0.0868 C.3     1  UNL1        0.0790
     23 H           2.5432   -1.7265    0.0124 H       1  UNL1        0.0368
     24 H           3.2945    0.0818   -1.5287 H       1  UNL1        0.0472
     25 H          -0.0988   -2.2310    1.9450 H       1  UNL1        0.0772
     26 H           2.0307   -0.9692    2.3866 H       1  UNL1        0.0287
     27 H           0.7460    0.1975    2.6771 H       1  UNL1        0.0287
     28 H           1.4978    1.2209   -2.4108 H       1  UNL1        0.0329
     29 H           2.0137    2.4078   -1.2265 H       1  UNL1        0.0329
     30 H           1.8878    1.9354    1.4711 H       1  UNL1        0.0427
     31 H           3.0705    1.1554    2.5067 H       1  UNL1        0.0427
     32 H           0.0666   -3.7461    0.2781 H       1  UNL1        0.0675
     33 H           1.6268   -1.5936   -2.5669 H       1  UNL1        0.0573
     34 H          -0.2529   -3.0700   -2.2991 H       1  UNL1        0.0596
     35 H           3.7733    2.7539    0.0327 H       1  UNL1        0.0391
     36 H           4.9052    1.5529   -0.6269 H       1  UNL1        0.0391
     37 H           4.9119    1.9100    1.0911 H       1  UNL1        0.0391
     38 H          -0.5953    3.0800   -1.8348 H       1  UNL1        0.0622
     39 H          -2.8599    2.8061   -1.0394 H       1  UNL1        0.0655
     40 H          -2.1650   -3.4351    0.6669 H       1  UNL1        0.2104
     41 H          -4.5125    2.7381    0.4819 H       1  UNL1        0.0660
     42 H          -5.6882    1.4255    0.5022 H       1  UNL1        0.0660
     43 H          -4.8280    1.7389   -1.0034 H       1  UNL1        0.0660
@<TRIPOS>BOND
     1     1     8    1
     2     1    16    1
     3     2    14    1
     4     2    40    1
     5     3    20    1
     6     3    22    1
     7     4     7    1
     8     4    12    1
     9     4    18    1
    10     5     6    1
    11     5     8    1
    12     5     9    1
    13     5    10    1
    14     6     7    1
    15     6    15    1
    16     6    23    1
    17     7    11    1
    18     7    24    1
    19     8    14    1
    20     8    25    1
    21     9    12    1
    22     9    26    1
    23     9    27    1
    24    10    13   ar
    25    10    16   ar
    26    11    13    1
    27    11    28    1
    28    11    29    1
    29    12    30    1
    30    12    31    1
    31    13    19   ar
    32    14    17    1
    33    14    32    1
    34    15    17    2
    35    15    33    1
    36    16    20   ar
    37    17    34    1
    38    18    35    1
    39    18    36    1
    40    18    37    1
    41    19    21   ar
    42    19    38    1
    43    20    21   ar
    44    21    39    1
    45    22    41    1
    46    22    42    1
    47    22    43    1
@<TRIPOS>MOLECULE
5492619
 46 50 0 0 0
SMALL
GASTEIGER

@<TRIPOS>ATOM
      1 O          -1.6146   -0.4099    1.3175 O.3     1  UNL1       -0.4811
      2 O          -2.3582   -2.5881    0.0839 O.3     1  UNL1       -0.3721
      3 O          -3.3489    1.7850    0.5394 O.3     1  UNL1       -0.4914
      4 N           3.5136    0.1844    0.3861 N.3     1  UNL1       -0.3015
      5 C           0.7419   -0.6050    0.7337 C.3     1  UNL1        0.0480
      6 C           1.6587   -1.2446   -0.3202 C.3     1  UNL1        0.0064
      7 C           2.6584   -0.1352   -0.7826 C.3     1  UNL1        0.0213
      8 C          -0.5263   -1.3850    1.1524 C.3     1  UNL1        0.1401
      9 C           1.5884   -0.1504    1.9390 C.3     1  UNL1       -0.0263
     10 C           0.0586    0.5687    0.1133 C.ar    1  UNL1        0.0116
     11 C           1.9382    1.0976   -1.4297 C.3     1  UNL1       -0.0110
     12 C           2.7781    0.7336    1.5296 C.3     1  UNL1       -0.0001
     13 C          -0.9374   -2.5149    0.1724 C.3     1  UNL1        0.1140
     14 C           0.5910    1.4179   -0.8399 C.ar    1  UNL1       -0.0383
     15 C           0.8657   -1.8801   -1.4336 C.2     1  UNL1       -0.0799
     16 C          -1.2497    0.6512    0.5338 C.ar    1  UNL1        0.1666
     17 C          -0.3303   -2.4420   -1.2034 C.2     1  UNL1       -0.0557
     18 C          -0.2181    2.4661   -1.2819 C.ar    1  UNL1       -0.0546
     19 C           4.6704    1.0084    0.0512 C.3     1  UNL1       -0.0124
     20 C          -2.0644    1.6814    0.1184 C.ar    1  UNL1        0.1618
     21 C          -1.5307    2.6062   -0.7883 C.ar    1  UNL1       -0.0160
     22 C          -2.7732   -3.7358   -0.6414 C.3     1  UNL1        0.0374
     23 C          -4.1110    2.8908    0.0503 C.3     1  UNL1        0.0790
     24 H           2.2389   -2.0601    0.1376 H       1  UNL1        0.0368
     25 H           3.3128   -0.5730   -1.5490 H       1  UNL1        0.0472
     26 H          -0.3896   -1.8396    2.1423 H       1  UNL1        0.0772
     27 H           1.9741   -1.0408    2.4536 H       1  UNL1        0.0287
     28 H           0.9791    0.3939    2.6720 H       1  UNL1        0.0287
     29 H           1.7759    0.8608   -2.4900 H       1  UNL1        0.0329
     30 H           2.5705    1.9905   -1.4083 H       1  UNL1        0.0329
     31 H           2.4295    1.7523    1.3193 H       1  UNL1        0.0427
     32 H           3.4486    0.8117    2.3946 H       1  UNL1        0.0427
     33 H          -0.5765   -3.4545    0.6157 H       1  UNL1        0.0678
     34 H           1.2964   -1.9217   -2.4293 H       1  UNL1        0.0573
     35 H          -0.8049   -2.9263   -2.0494 H       1  UNL1        0.0596
     36 H           0.1490    3.1652   -2.0286 H       1  UNL1        0.0622
     37 H           4.4013    2.0378   -0.2053 H       1  UNL1        0.0391
     38 H           5.2285    0.5762   -0.7867 H       1  UNL1        0.0391
     39 H           5.3645    1.0464    0.8984 H       1  UNL1        0.0391
     40 H          -2.0961    3.4454   -1.1818 H       1  UNL1        0.0655
     41 H          -2.1669   -4.6199   -0.4183 H       1  UNL1        0.0524
     42 H          -2.7980   -3.5359   -1.7161 H       1  UNL1        0.0524
     43 H          -3.8024   -3.9574   -0.3414 H       1  UNL1        0.0524
     44 H          -3.6771    3.8462    0.3641 H       1  UNL1        0.0660
     45 H          -5.1058    2.8238    0.5025 H       1  UNL1        0.0660
     46 H          -4.2452    2.8343   -1.0351 H       1  UNL1        0.0660
@<TRIPOS>BOND
     1     1     8    1
     2     1    16    1
     3     2    13    1
     4     2    22    1
     5     3    20    1
     6     3    23    1
     7     4     7    1
     8     4    12    1
     9     4    19    1
    10     5     6    1
    11     5     8    1
    12     5     9    1
    13     5    10    1
    14     6     7    1
    15     6    15    1
    16     6    24    1
    17     7    11    1
    18     7    25    1
    19     8    13    1
    20     8    26    1
    21     9    12    1
    22     9    27    1
    23     9    28    1
    24    10    14   ar
    25    10    16   ar
    26    11    14    1
    27    11    29    1
    28    11    30    1
    29    12    31    1
    30    12    32    1
    31    13    17    1
    32    13    33    1
    33    14    18   ar
    34    15    17    2
    35    15    34    1
    36    16    20   ar
    37    17    35    1
    38    18    21   ar
    39    18    36    1
    40    19    37    1
    41    19    38    1
    42    19    39    1
    43    20    21   ar
    44    21    40    1
    45    22    41    1
    46    22    42    1
    47    22    43    1
    48    23    44    1
    49    23    45    1
    50    23    46    1
@<TRIPOS>MOLECULE
553916
 55 59 0 0 0
SMALL
GASTEIGER

@<TRIPOS>ATOM
      1 SI         -4.3712   -0.6471   -0.0557 Si      1  UNL1        0.0000
      2 O          -0.3048    1.3551    1.4535 O.3     1  UNL1        0.0000
      3 O          -2.9106   -0.6454    0.7599 O.3     1  UNL1        0.0000
      4 O           0.5667    4.0319    0.6739 O.3     1  UNL1        0.0000
      5 N           3.0349   -2.4596    0.2034 N.3     1  UNL1        0.0000
      6 C           0.7213   -0.6991    0.7025 C.3     1  UNL1        0.0000
      7 C           0.6461   -1.8484   -0.3051 C.3     1  UNL1        0.0000
      8 C          -0.6047   -0.0653    1.1687 C.3     1  UNL1        0.0000
      9 C           2.0897   -2.0426   -0.8670 C.3     1  UNL1        0.0000
     10 C           1.6372   -1.1341    1.8669 C.3     1  UNL1        0.0000
     11 C           1.2877    0.5160    0.0514 C.ar    1  UNL1        0.0000
     12 C           2.6378   -0.7639   -1.5940 C.3     1  UNL1        0.0000
     13 C           3.0303   -1.5725    1.3776 C.3     1  UNL1        0.0000
     14 C          -1.7527   -0.0987    0.1229 C.3     1  UNL1        0.0000
     15 C           2.2146    0.5398   -0.9727 C.ar    1  UNL1        0.0000
     16 C          -0.4129   -1.6412   -1.3501 C.2     1  UNL1        0.0000
     17 C           0.7079    1.6530    0.5735 C.ar    1  UNL1        0.0000
     18 C          -1.4895   -0.8728   -1.1388 C.2     1  UNL1        0.0000
     19 C           2.6304    1.7954   -1.4154 C.ar    1  UNL1        0.0000
     20 C           2.8478   -3.8566    0.5959 C.3     1  UNL1        0.0000
     21 C           1.1136    2.9021    0.1630 C.ar    1  UNL1        0.0000
     22 C           2.0949    2.9666   -0.8369 C.ar    1  UNL1        0.0000
     23 C          -4.2012   -1.6419   -1.6469 C.3     1  UNL1        0.0000
     24 C          -4.9011    1.0982   -0.5156 C.3     1  UNL1        0.0000
     25 C          -5.7318   -1.4332    0.9781 C.3     1  UNL1        0.0000
     26 C          -0.5801    4.5644    0.0070 C.3     1  UNL1        0.0000
     27 H           0.3411   -2.7676    0.2130 H       1  UNL1        0.0000
     28 H          -0.9381   -0.5096    2.1148 H       1  UNL1        0.0000
     29 H           2.0809   -2.8362   -1.6271 H       1  UNL1        0.0000
     30 H           1.1649   -1.9682    2.4020 H       1  UNL1        0.0000
     31 H           1.7614   -0.3266    2.6000 H       1  UNL1        0.0000
     32 H           2.2556   -0.7737   -2.6234 H       1  UNL1        0.0000
     33 H           3.7320   -0.8063   -1.6622 H       1  UNL1        0.0000
     34 H           3.6197   -0.6805    1.1324 H       1  UNL1        0.0000
     35 H           3.5769   -2.0324    2.2112 H       1  UNL1        0.0000
     36 H          -1.9789    0.9380   -0.1655 H       1  UNL1        0.0000
     37 H          -0.2760   -2.1067   -2.3221 H       1  UNL1        0.0000
     38 H          -2.0586   -0.6354   -2.0273 H       1  UNL1        0.0000
     39 H           3.3570    1.8822   -2.2187 H       1  UNL1        0.0000
     40 H           1.9030   -4.0348    1.1186 H       1  UNL1        0.0000
     41 H           3.6619   -4.1756    1.2566 H       1  UNL1        0.0000
     42 H           2.8886   -4.5154   -0.2786 H       1  UNL1        0.0000
     43 H           2.4345    3.9343   -1.1995 H       1  UNL1        0.0000
     44 H          -3.5137   -2.4863   -1.5508 H       1  UNL1        0.0000
     45 H          -3.9555   -1.0246   -2.5147 H       1  UNL1        0.0000
     46 H          -5.1820   -2.0771   -1.8738 H       1  UNL1        0.0000
     47 H          -5.8758    1.0845   -1.0122 H       1  UNL1        0.0000
     48 H          -4.1784    1.5591   -1.1951 H       1  UNL1        0.0000
     49 H          -4.9795    1.7227    0.3791 H       1  UNL1        0.0000
     50 H          -6.6790   -1.4378    0.4308 H       1  UNL1        0.0000
     51 H          -5.8748   -0.8775    1.9094 H       1  UNL1        0.0000
     52 H          -5.4740   -2.4661    1.2297 H       1  UNL1        0.0000
     53 H          -1.3981    3.8370    0.0116 H       1  UNL1        0.0000
     54 H          -0.9033    5.4598    0.5447 H       1  UNL1        0.0000
     55 H          -0.3288    4.8429   -1.0213 H       1  UNL1        0.0000
@<TRIPOS>BOND
     1     1     3    1
     2     1    23    1
     3     1    24    1
     4     1    25    1
     5     2     8    1
     6     2    17    1
     7     3    14    1
     8     4    21    1
     9     4    26    1
    10     5     9    1
    11     5    13    1
    12     5    20    1
    13     6     7    1
    14     6     8    1
    15     6    10    1
    16     6    11    1
    17     7     9    1
    18     7    16    1
    19     7    27    1
    20     8    14    1
    21     8    28    1
    22     9    12    1
    23     9    29    1
    24    10    13    1
    25    10    30    1
    26    10    31    1
    27    11    15   ar
    28    11    17   ar
    29    12    15    1
    30    12    32    1
    31    12    33    1
    32    13    34    1
    33    13    35    1
    34    14    18    1
    35    14    36    1
    36    15    19   ar
    37    16    18    2
    38    16    37    1
    39    17    21   ar
    40    18    38    1
    41    19    22   ar
    42    19    39    1
    43    20    40    1
    44    20    41    1
    45    20    42    1
    46    21    22   ar
    47    22    43    1
    48    23    44    1
    49    23    45    1
    50    23    46    1
    51    24    47    1
    52    24    48    1
    53    24    49    1
    54    25    50    1
    55    25    51    1
    56    25    52    1
    57    26    53    1
    58    26    54    1
    59    26    55    1
@<TRIPOS>MOLECULE
5489029
 63 68 0 0 0
SMALL
GASTEIGER

@<TRIPOS>ATOM
      1 O           0.5941   -1.0485   -0.7894 O.3     1  UNL1       -0.4811
      2 O          -1.2249   -0.0387    0.7886 O.3     1  UNL1       -0.3377
      3 O           1.2500   -3.7388    0.0842 O.3     1  UNL1       -0.4914
      4 O          -3.3358    0.9343    0.5876 O.3     1  UNL1       -0.3315
      5 O          -2.0833   -2.1914   -0.8281 O.3     1  UNL1       -0.3841
      6 O          -4.9953   -2.6039   -0.6768 O.3     1  UNL1       -0.3864
      7 O          -6.3745   -0.0932   -1.1697 O.3     1  UNL1       -0.3860
      8 O          -6.4858    2.3527   -0.0383 O.3     1  UNL1       -0.4788
      9 O          -4.9886    2.5526    1.6689 O.2     1  UNL1       -0.2480
     10 N           4.5369    2.4072   -0.9647 N.3     1  UNL1       -0.3015
     11 C           2.0950    0.8658   -0.6691 C.3     1  UNL1        0.0480
     12 C           2.4394    2.0538    0.2423 C.3     1  UNL1        0.0064
     13 C           0.6155    0.4211   -0.7430 C.3     1  UNL1        0.1402
     14 C           3.9965    2.0828    0.3777 C.3     1  UNL1        0.0213
     15 C           2.7212    1.0904   -2.0596 C.3     1  UNL1       -0.0263
     16 C           2.6463   -0.3768   -0.0515 C.ar    1  UNL1        0.0116
     17 C           4.5730    0.7756    1.0224 C.3     1  UNL1       -0.0110
     18 C           4.2244    1.4068   -1.9900 C.3     1  UNL1       -0.0001
     19 C          -0.2728    0.9529    0.4119 C.3     1  UNL1        0.1175
     20 C           3.8144   -0.4790    0.6824 C.ar    1  UNL1       -0.0383
     21 C           1.6956    1.9827    1.5514 C.2     1  UNL1       -0.0799
     22 C           1.7738   -1.4298   -0.2094 C.ar    1  UNL1        0.1666
     23 C           0.4626    1.4598    1.6240 C.2     1  UNL1       -0.0556
     24 C           4.1547   -1.7441    1.1644 C.ar    1  UNL1       -0.0546
     25 C           5.9591    2.7339   -0.9549 C.3     1  UNL1       -0.0124
     26 C           2.0918   -2.6891    0.2496 C.ar    1  UNL1        0.1618
     27 C           3.3062   -2.8447    0.9300 C.ar    1  UNL1       -0.0160
     28 C          -2.4029    0.0397   -0.0132 C.3     1  UNL1        0.1893
     29 C          -3.0003   -1.3642   -0.1121 C.3     1  UNL1        0.1342
     30 C          -4.3427   -1.3444   -0.8436 C.3     1  UNL1        0.1145
     31 C          -5.2640   -0.2572   -0.2894 C.3     1  UNL1        0.1201
     32 C          -4.5264    1.0714   -0.1795 C.3     1  UNL1        0.1859
     33 C           1.6728   -5.0042    0.5967 C.3     1  UNL1        0.0790
     34 C          -5.3257    2.0644    0.6004 C.2     1  UNL1        0.3367
     35 H           2.1188    2.9928   -0.2340 H       1  UNL1        0.0368
     36 H           0.1653    0.7506   -1.6883 H       1  UNL1        0.0772
     37 H           4.2591    2.9194    1.0400 H       1  UNL1        0.0472
     38 H           2.2080    1.9318   -2.5446 H       1  UNL1        0.0287
     39 H           2.5730    0.2183   -2.7096 H       1  UNL1        0.0287
     40 H           4.5178    0.8981    2.1127 H       1  UNL1        0.0329
     41 H           5.6321    0.6412    0.7823 H       1  UNL1        0.0329
     42 H           4.7915    0.4827   -1.8224 H       1  UNL1        0.0427
     43 H           4.5322    1.7809   -2.9746 H       1  UNL1        0.0427
     44 H          -0.8042    1.8449    0.0456 H       1  UNL1        0.0679
     45 H           2.1533    2.4024    2.4418 H       1  UNL1        0.0573
     46 H          -0.0595    1.4689    2.5766 H       1  UNL1        0.0596
     47 H           5.0622   -1.8838    1.7458 H       1  UNL1        0.0622
     48 H           6.5952    1.8650   -0.7593 H       1  UNL1        0.0391
     49 H           6.1786    3.5011   -0.2044 H       1  UNL1        0.0391
     50 H           6.2564    3.1536   -1.9227 H       1  UNL1        0.0391
     51 H           3.6401   -3.7938    1.3380 H       1  UNL1        0.0655
     52 H          -2.1508    0.3953   -1.0222 H       1  UNL1        0.0938
     53 H          -3.1162   -1.8072    0.8842 H       1  UNL1        0.0671
     54 H          -4.1898   -1.2137   -1.9223 H       1  UNL1        0.0648
     55 H          -5.6600   -0.5625    0.6879 H       1  UNL1        0.0652
     56 H          -4.2913    1.5132   -1.1558 H       1  UNL1        0.0741
     57 H           2.5880   -5.3500    0.1047 H       1  UNL1        0.0660
     58 H           0.8861   -5.7282    0.3612 H       1  UNL1        0.0660
     59 H           1.7735   -4.9800    1.6869 H       1  UNL1        0.0660
     60 H          -1.9568   -1.8070   -1.7124 H       1  UNL1        0.2101
     61 H          -5.7806   -2.6087   -1.2495 H       1  UNL1        0.2100
     62 H          -6.8971   -0.9121   -1.1420 H       1  UNL1        0.2100
     63 H          -7.0265    3.0025    0.4593 H       1  UNL1        0.2951
@<TRIPOS>BOND
     1     1    13    1
     2     1    22    1
     3     2    19    1
     4     2    28    1
     5     3    26    1
     6     3    33    1
     7     4    28    1
     8     4    32    1
     9     5    29    1
    10     5    60    1
    11     6    30    1
    12     6    61    1
    13     7    31    1
    14     7    62    1
    15     8    34    1
    16     8    63    1
    17     9    34    2
    18    10    14    1
    19    10    18    1
    20    10    25    1
    21    11    12    1
    22    11    13    1
    23    11    15    1
    24    11    16    1
    25    12    14    1
    26    12    21    1
    27    12    35    1
    28    13    19    1
    29    13    36    1
    30    14    17    1
    31    14    37    1
    32    15    18    1
    33    15    38    1
    34    15    39    1
    35    16    20   ar
    36    16    22   ar
    37    17    20    1
    38    17    40    1
    39    17    41    1
    40    18    42    1
    41    18    43    1
    42    19    23    1
    43    19    44    1
    44    20    24   ar
    45    21    23    2
    46    21    45    1
    47    22    26   ar
    48    23    46    1
    49    24    27   ar
    50    24    47    1
    51    25    48    1
    52    25    49    1
    53    25    50    1
    54    26    27   ar
    55    27    51    1
    56    28    29    1
    57    28    52    1
    58    29    30    1
    59    29    53    1
    60    30    31    1
    61    30    54    1
    62    31    32    1
    63    31    55    1
    64    32    34    1
    65    32    56    1
    66    33    57    1
    67    33    58    1
    68    33    59    1
@<TRIPOS>MOLECULE
11066604
 43 47 0 0 0
SMALL
GASTEIGER

@<TRIPOS>ATOM
      1 O          -1.5926   -1.0371    1.1890 O.3     1  UNL1       -0.4811
      2 O          -1.8298   -3.2224   -0.2208 O.3     1  UNL1       -0.3841
      3 O          -3.7490    0.7880    0.5181 O.3     1  UNL1       -0.4914
      4 N           3.2987    0.7132    0.4612 N.3     1  UNL1       -0.3015
      5 C           0.7585   -0.6767    0.6654 C.3     1  UNL1        0.0480
      6 C           1.8071   -1.0215   -0.4031 C.3     1  UNL1        0.0064
      7 C           2.5499    0.3087   -0.7532 C.3     1  UNL1        0.0213
      8 C          -0.3170   -1.7404    0.9876 C.3     1  UNL1        0.1399
      9 C           1.4691   -0.1453    1.9259 C.3     1  UNL1       -0.0263
     10 C          -0.1533    0.3674    0.1106 C.ar    1  UNL1        0.0116
     11 C           1.5897    1.4045   -1.3316 C.3     1  UNL1       -0.0110
     12 C           2.4454    1.0021    1.6181 C.3     1  UNL1       -0.0001
     13 C           0.1967    1.3820   -0.7621 C.ar    1  UNL1       -0.0383
     14 C          -0.4599   -2.8532   -0.0835 C.3     1  UNL1        0.1110
     15 C           1.1865   -1.7246   -1.5833 C.2     1  UNL1       -0.0799
     16 C          -1.4545    0.1347    0.4954 C.ar    1  UNL1        0.1666
     17 C           0.1370   -2.5460   -1.4311 C.2     1  UNL1       -0.0559
     18 C           4.2548    1.7894    0.2223 C.3     1  UNL1       -0.0124
     19 C          -0.8133    2.2630   -1.1520 C.ar    1  UNL1       -0.0546
     20 C          -2.4665    0.9951    0.1305 C.ar    1  UNL1        0.1618
     21 C          -2.1323    2.0799   -0.6902 C.ar    1  UNL1       -0.0160
     22 C          -4.7250    1.7390    0.0868 C.3     1  UNL1        0.0790
     23 H           2.5432   -1.7265    0.0124 H       1  UNL1        0.0368
     24 H           3.2945    0.0818   -1.5287 H       1  UNL1        0.0472
     25 H          -0.0988   -2.2310    1.9450 H       1  UNL1        0.0772
     26 H           2.0307   -0.9692    2.3866 H       1  UNL1        0.0287
     27 H           0.7460    0.1975    2.6771 H       1  UNL1        0.0287
     28 H           1.4978    1.2209   -2.4108 H       1  UNL1        0.0329
     29 H           2.0137    2.4078   -1.2265 H       1  UNL1        0.0329
     30 H           1.8878    1.9354    1.4711 H       1  UNL1        0.0427
     31 H           3.0705    1.1554    2.5067 H       1  UNL1        0.0427
     32 H           0.0666   -3.7461    0.2781 H       1  UNL1        0.0675
     33 H           1.6268   -1.5936   -2.5669 H       1  UNL1        0.0573
     34 H          -0.2529   -3.0700   -2.2991 H       1  UNL1        0.0596
     35 H           3.7733    2.7539    0.0327 H       1  UNL1        0.0391
     36 H           4.9052    1.5529   -0.6269 H       1  UNL1        0.0391
     37 H           4.9119    1.9100    1.0911 H       1  UNL1        0.0391
     38 H          -0.5953    3.0800   -1.8348 H       1  UNL1        0.0622
     39 H          -2.8599    2.8061   -1.0394 H       1  UNL1        0.0655
     40 H          -2.1650   -3.4351    0.6669 H       1  UNL1        0.2104
     41 H          -4.5125    2.7381    0.4819 H       1  UNL1        0.0660
     42 H          -5.6882    1.4255    0.5022 H       1  UNL1        0.0660
     43 H          -4.8280    1.7389   -1.0034 H       1  UNL1        0.0660
@<TRIPOS>BOND
     1     1     8    1
     2     1    16    1
     3     2    14    1
     4     2    40    1
     5     3    20    1
     6     3    22    1
     7     4     7    1
     8     4    12    1
     9     4    18    1
    10     5     6    1
    11     5     8    1
    12     5     9    1
    13     5    10    1
    14     6     7    1
    15     6    15    1
    16     6    23    1
    17     7    11    1
    18     7    24    1
    19     8    14    1
    20     8    25    1
    21     9    12    1
    22     9    26    1
    23     9    27    1
    24    10    13   ar
    25    10    16   ar
    26    11    13    1
    27    11    28    1
    28    11    29    1
    29    12    30    1
    30    12    31    1
    31    13    19   ar
    32    14    17    1
    33    14    32    1
    34    15    17    2
    35    15    33    1
    36    16    20   ar
    37    17    34    1
    38    18    35    1
    39    18    36    1
    40    18    37    1
    41    19    21   ar
    42    19    38    1
    43    20    21   ar
    44    21    39    1
    45    22    41    1
    46    22    42    1
    47    22    43    1
@<TRIPOS>MOLECULE
416172
 48 52 0 0 0
SMALL
GASTEIGER

@<TRIPOS>ATOM
      1 O          -0.6069   -1.4973    1.1913 O.3     1  UNL1       -0.4799
      2 O          -3.3280    0.3981    0.6634 O.3     1  UNL1       -0.4536
      3 O           0.4308   -4.0003    0.0980 O.3     1  UNL1       -0.4914
      4 O          -4.6368   -0.3499   -1.0871 O.2     1  UNL1       -0.2511
      5 N           2.4276    2.6719    0.5694 N.3     1  UNL1       -0.3015
      6 C           0.3123    0.6882    0.7329 C.3     1  UNL1        0.0491
      7 C           0.1909    1.9604   -0.1128 C.3     1  UNL1        0.0064
      8 C           1.6288    2.2980   -0.6237 C.3     1  UNL1        0.0213
      9 C          -0.9833   -0.0711    1.0804 C.3     1  UNL1        0.1509
     10 C           1.1857    1.0051    1.9660 C.3     1  UNL1       -0.0263
     11 C           0.9553   -0.3983   -0.0576 C.ar    1  UNL1        0.0116
     12 C           2.2408    1.1545   -1.5063 C.3     1  UNL1       -0.0110
     13 C           2.5465    1.6115    1.5764 C.3     1  UNL1       -0.0001
     14 C           1.8949   -0.2388   -1.0566 C.ar    1  UNL1       -0.0383
     15 C          -2.1088    0.0310    0.0144 C.3     1  UNL1        0.1587
     16 C          -0.8534    1.8538   -1.1866 C.2     1  UNL1       -0.0788
     17 C           0.4351   -1.6237    0.3034 C.ar    1  UNL1        0.1666
     18 C          -1.8849    1.0031   -1.1078 C.2     1  UNL1       -0.0439
     19 C           3.7292    3.2442    0.2424 C.3     1  UNL1       -0.0124
     20 C           2.3885   -1.4026   -1.6465 C.ar    1  UNL1       -0.0546
     21 C           0.9182   -2.7856   -0.2532 C.ar    1  UNL1        0.1618
     22 C           1.9153   -2.6665   -1.2321 C.ar    1  UNL1       -0.0160
     23 C          -4.4413    0.3796   -0.1244 C.2     1  UNL1        0.3046
     24 C           1.0637   -4.6690    1.1916 C.3     1  UNL1        0.0790
     25 C          -5.4202    1.4036    0.3649 C.3     1  UNL1        0.0333
     26 H          -0.1471    2.7912    0.5259 H       1  UNL1        0.0368
     27 H           1.5591    3.1952   -1.2544 H       1  UNL1        0.0472
     28 H          -1.3642    0.2310    2.0637 H       1  UNL1        0.0783
     29 H           1.3597    0.1109    2.5783 H       1  UNL1        0.0287
     30 H           0.6499    1.7193    2.6056 H       1  UNL1        0.0287
     31 H           3.3273    1.2558   -1.5910 H       1  UNL1        0.0329
     32 H           1.8397    1.2726   -2.5220 H       1  UNL1        0.0329
     33 H           3.0018    2.0210    2.4869 H       1  UNL1        0.0427
     34 H           3.2189    0.8175    1.2284 H       1  UNL1        0.0427
     35 H          -2.2585   -0.9629   -0.4295 H       1  UNL1        0.0817
     36 H          -0.7896    2.5297   -2.0346 H       1  UNL1        0.0574
     37 H          -2.5895    1.0056   -1.9356 H       1  UNL1        0.0607
     38 H           4.1820    3.6877    1.1364 H       1  UNL1        0.0391
     39 H           3.6279    4.0546   -0.4877 H       1  UNL1        0.0391
     40 H           4.4315    2.5045   -0.1547 H       1  UNL1        0.0391
     41 H           3.1279   -1.3450   -2.4408 H       1  UNL1        0.0622
     42 H           2.3146   -3.5592   -1.7083 H       1  UNL1        0.0655
     43 H           0.9737   -4.0747    2.1064 H       1  UNL1        0.0660
     44 H           2.1181   -4.8566    0.9656 H       1  UNL1        0.0660
     45 H           0.5603   -5.6276    1.3440 H       1  UNL1        0.0660
     46 H          -4.9727    2.3993    0.3113 H       1  UNL1        0.0342
     47 H          -5.7197    1.1703    1.3897 H       1  UNL1        0.0342
     48 H          -6.3102    1.3873   -0.2707 H       1  UNL1        0.0342
@<TRIPOS>BOND
     1     1     9    1
     2     1    17    1
     3     2    15    1
     4     2    23    1
     5     3    21    1
     6     3    24    1
     7     4    23    2
     8     5     8    1
     9     5    13    1
    10     5    19    1
    11     6     7    1
    12     6     9    1
    13     6    10    1
    14     6    11    1
    15     7     8    1
    16     7    16    1
    17     7    26    1
    18     8    12    1
    19     8    27    1
    20     9    15    1
    21     9    28    1
    22    10    13    1
    23    10    29    1
    24    10    30    1
    25    11    14   ar
    26    11    17   ar
    27    12    14    1
    28    12    31    1
    29    12    32    1
    30    13    33    1
    31    13    34    1
    32    14    20   ar
    33    15    18    1
    34    15    35    1
    35    16    18    2
    36    16    36    1
    37    17    21   ar
    38    18    37    1
    39    19    38    1
    40    19    39    1
    41    19    40    1
    42    20    22   ar
    43    20    41    1
    44    21    22   ar
    45    22    42    1
    46    23    25    1
    47    24    43    1
    48    24    44    1
    49    24    45    1
    50    25    46    1
    51    25    47    1
    52    25    48    1
@<TRIPOS>MOLECULE
73852573
 44 49 0 0 0
SMALL
GASTEIGER

@<TRIPOS>ATOM
      1 O          -1.3891    2.8370   -1.5987 O.3     1  UNL1       -0.3651
      2 O           1.6353    0.9912    1.1723 O.3     1  UNL1       -0.4813
      3 O           1.3367    3.6006    0.4316 O.3     1  UNL1       -0.3854
      4 O           3.9009   -0.6175    0.3714 O.3     1  UNL1       -0.4914
      5 N          -3.2075   -1.0604    0.4879 N.3     1  UNL1       -0.3017
      6 C          -0.7147    0.4064    0.7706 C.3     1  UNL1        0.0468
      7 C          -1.7596    0.7293   -0.3155 C.3     1  UNL1        0.0170
      8 C          -1.1150    1.4382   -1.4835 C.3     1  UNL1        0.0931
      9 C          -0.0764    2.4793   -1.1436 C.3     1  UNL1        0.1148
     10 C           0.2725    1.5319    1.1783 C.3     1  UNL1        0.1387
     11 C          -2.4451   -0.6182   -0.7037 C.3     1  UNL1        0.0203
     12 C           0.1708    2.7953    0.3015 C.3     1  UNL1        0.1212
     13 C          -1.4176   -0.2099    1.9968 C.3     1  UNL1       -0.0265
     14 C           0.2646   -0.5432    0.1732 C.ar    1  UNL1        0.0114
     15 C          -1.4321   -1.6864   -1.2513 C.3     1  UNL1       -0.0113
     16 C          -2.3557   -1.3732    1.6396 C.3     1  UNL1       -0.0002
     17 C          -0.0292   -1.5641   -0.7146 C.ar    1  UNL1       -0.0383
     18 C           1.5563   -0.1897    0.4880 C.ar    1  UNL1        0.1665
     19 C          -4.1455   -2.1425    0.2070 C.3     1  UNL1       -0.0125
     20 C           1.0358   -2.3457   -1.1665 C.ar    1  UNL1       -0.0546
     21 C           2.6243   -0.9451    0.0528 C.ar    1  UNL1        0.1618
     22 C           2.3524   -2.0487   -0.7653 C.ar    1  UNL1       -0.0160
     23 C           4.9378   -1.4646   -0.1284 C.3     1  UNL1        0.0790
     24 H          -2.5205    1.4045    0.1036 H       1  UNL1        0.0352
     25 H          -1.0030    0.8660   -2.3919 H       1  UNL1        0.0626
     26 H           0.7667    2.6066   -1.8066 H       1  UNL1        0.0649
     27 H           0.1032    1.8441    2.2172 H       1  UNL1        0.0769
     28 H          -3.1697   -0.4069   -1.5019 H       1  UNL1        0.0469
     29 H          -0.6705    3.3913    0.6788 H       1  UNL1        0.0657
     30 H          -2.0101    0.5731    2.4897 H       1  UNL1        0.0287
     31 H          -0.6861   -0.5606    2.7363 H       1  UNL1        0.0287
     32 H          -1.3734   -1.5478   -2.3394 H       1  UNL1        0.0329
     33 H          -1.7934   -2.7077   -1.0952 H       1  UNL1        0.0329
     34 H          -1.7699   -2.2836    1.4630 H       1  UNL1        0.0427
     35 H          -2.9826   -1.5776    2.5167 H       1  UNL1        0.0427
     36 H           1.1909    4.4131   -0.0826 H       1  UNL1        0.2101
     37 H          -4.7939   -1.8864   -0.6380 H       1  UNL1        0.0391
     38 H          -4.8062   -2.3015    1.0668 H       1  UNL1        0.0391
     39 H          -3.6499   -3.0932   -0.0125 H       1  UNL1        0.0391
     40 H           0.8604   -3.1648   -1.8589 H       1  UNL1        0.0622
     41 H           3.1259   -2.6983   -1.1633 H       1  UNL1        0.0655
     42 H           5.8885   -1.0627    0.2369 H       1  UNL1        0.0660
     43 H           4.9780   -1.4437   -1.2226 H       1  UNL1        0.0660
     44 H           4.8465   -2.4834    0.2628 H       1  UNL1        0.0660
@<TRIPOS>BOND
     1     1     8    1
     2     1     9    1
     3     2    10    1
     4     2    18    1
     5     3    12    1
     6     3    36    1
     7     4    21    1
     8     4    23    1
     9     5    11    1
    10     5    16    1
    11     5    19    1
    12     6     7    1
    13     6    10    1
    14     6    13    1
    15     6    14    1
    16     7     8    1
    17     7    11    1
    18     7    24    1
    19     8     9    1
    20     8    25    1
    21     9    12    1
    22     9    26    1
    23    10    12    1
    24    10    27    1
    25    11    15    1
    26    11    28    1
    27    12    29    1
    28    13    16    1
    29    13    30    1
    30    13    31    1
    31    14    17   ar
    32    14    18   ar
    33    15    17    1
    34    15    32    1
    35    15    33    1
    36    16    34    1
    37    16    35    1
    38    17    20   ar
    39    18    21   ar
    40    19    37    1
    41    19    38    1
    42    19    39    1
    43    20    22   ar
    44    20    40    1
    45    21    22   ar
    46    22    41    1
    47    23    42    1
    48    23    43    1
    49    23    44    1
@<TRIPOS>MOLECULE
11865406
 44 48 0 0 0
SMALL
GASTEIGER

@<TRIPOS>ATOM
      1 O           1.7025    0.7102    1.2324 O.3     1  UNL1       -0.4811
      2 O           2.3150    2.8277   -0.1673 O.3     1  UNL1       -0.3841
      3 O           3.5542   -1.4429    0.6311 O.3     1  UNL1       -0.4914
      4 N          -3.3787   -0.2813    0.4182 N.4     1  UNL1        0.2359
      5 C          -0.6661    0.7209    0.6563 C.3     1  UNL1        0.0553
      6 C          -1.6150    1.2202   -0.4449 C.3     1  UNL1        0.0339
      7 C          -2.5356    0.0278   -0.8308 C.3     1  UNL1       -0.0097
      8 C           0.5587    1.6043    0.9990 C.3     1  UNL1        0.1402
      9 C          -1.4711    0.3230    1.9111 C.3     1  UNL1        0.0015
     10 C           0.0814   -0.4609    0.1326 C.ar    1  UNL1        0.0120
     11 C          -2.5797   -0.6926    1.6309 C.3     1  UNL1       -0.0309
     12 C          -1.7747   -1.2340   -1.3362 C.3     1  UNL1        0.0165
     13 C          -0.4068   -1.4204   -0.7360 C.ar    1  UNL1       -0.0345
     14 C           0.9013    2.6749   -0.0688 C.3     1  UNL1        0.1110
     15 C          -0.8594    1.8081   -1.6089 C.2     1  UNL1       -0.0761
     16 C           1.3942   -0.4330    0.5461 C.ar    1  UNL1        0.1666
     17 C           0.3021    2.4543   -1.4315 C.2     1  UNL1       -0.0558
     18 C          -4.5359   -1.2096    0.1609 C.3     1  UNL1       -0.0428
     19 C           0.4580   -2.4575   -1.0903 C.ar    1  UNL1       -0.0544
     20 C           2.2638   -1.4489    0.2155 C.ar    1  UNL1        0.1618
     21 C           1.7789   -2.4794   -0.5998 C.ar    1  UNL1       -0.0160
     22 C           4.5130   -0.8107   -0.2196 C.3     1  UNL1        0.0790
     23 H          -2.2441    2.0317   -0.0510 H       1  UNL1        0.0408
     24 H          -3.2604    0.3447   -1.5910 H       1  UNL1        0.0860
     25 H           0.4000    2.1292    1.9500 H       1  UNL1        0.0772
     26 H          -1.9252    1.2278    2.3370 H       1  UNL1        0.0327
     27 H          -0.8143   -0.0855    2.6901 H       1  UNL1        0.0327
     28 H          -3.8212    0.6132    0.6697 H       1  UNL1        0.2034
     29 H          -2.1859   -1.6979    1.4510 H       1  UNL1        0.0815
     30 H          -3.2737   -0.7390    2.4773 H       1  UNL1        0.0815
     31 H          -1.6279   -1.1102   -2.4177 H       1  UNL1        0.0368
     32 H          -2.3617   -2.1471   -1.2029 H       1  UNL1        0.0368
     33 H           0.5134    3.6402    0.2800 H       1  UNL1        0.0675
     34 H          -1.2879    1.7401   -2.6041 H       1  UNL1        0.0575
     35 H           0.7932    2.9031   -2.2901 H       1  UNL1        0.0596
     36 H          -4.1603   -2.2252    0.0208 H       1  UNL1        0.0778
     37 H          -5.1963   -1.1658    1.0315 H       1  UNL1        0.0778
     38 H          -5.0685   -0.8566   -0.7256 H       1  UNL1        0.0778
     39 H           0.1282   -3.2405   -1.7679 H       1  UNL1        0.0622
     40 H           2.4370   -3.2941   -0.8933 H       1  UNL1        0.0655
     41 H           2.6815    1.9851   -0.4851 H       1  UNL1        0.2104
     42 H           4.2875    0.2546   -0.3252 H       1  UNL1        0.0660
     43 H           4.5306   -1.2920   -1.2026 H       1  UNL1        0.0660
     44 H           5.4994   -0.9160    0.2401 H       1  UNL1        0.0660
@<TRIPOS>UNITY_ATOM_ATTR
4 1
charge 1
@<TRIPOS>BOND
     1     1     8    1
     2     1    16    1
     3     2    14    1
     4     2    41    1
     5     3    20    1
     6     3    22    1
     7     4     7    1
     8     4    11    1
     9     4    18    1
    10     4    28    1
    11     5     6    1
    12     5     8    1
    13     5     9    1
    14     5    10    1
    15     6     7    1
    16     6    15    1
    17     6    23    1
    18     7    12    1
    19     7    24    1
    20     8    14    1
    21     8    25    1
    22     9    11    1
    23     9    26    1
    24     9    27    1
    25    10    13   ar
    26    10    16   ar
    27    11    29    1
    28    11    30    1
    29    12    13    1
    30    12    31    1
    31    12    32    1
    32    13    19   ar
    33    14    17    1
    34    14    33    1
    35    15    17    2
    36    15    34    1
    37    16    20   ar
    38    17    35    1
    39    18    36    1
    40    18    37    1
    41    18    38    1
    42    19    21   ar
    43    19    39    1
    44    20    21   ar
    45    21    40    1
    46    22    42    1
    47    22    43    1
    48    22    44    1
@<TRIPOS>MOLECULE
416170
 43 47 0 0 0
SMALL
GASTEIGER

@<TRIPOS>ATOM
      1 O           1.6451   -1.1802   -1.2466 O.3     1  UNL1       -0.4800
      2 O          -2.8988   -2.0823    1.5333 O.3     1  UNL1       -0.3874
      3 O           4.0870   -0.2134    0.0185 O.3     1  UNL1       -0.4914
      4 N          -2.6304    1.7902   -0.4489 N.3     1  UNL1       -0.3017
      5 C          -0.5723   -0.2899   -0.8151 C.3     1  UNL1        0.0481
      6 C          -1.8184   -0.5492    0.0341 C.3     1  UNL1        0.0180
      7 C          -2.2507    0.8339    0.6236 C.3     1  UNL1        0.0205
      8 C           0.2162   -1.5243   -1.2964 C.3     1  UNL1        0.1287
      9 C          -0.9345    0.6695   -1.9681 C.3     1  UNL1       -0.0263
     10 C           0.4834    0.3078    0.0446 C.ar    1  UNL1        0.0116
     11 C          -1.6085   -1.6411    1.1063 C.3     1  UNL1        0.0786
     12 C          -1.1366    1.4818    1.5255 C.3     1  UNL1       -0.0112
     13 C          -1.5888    1.9694   -1.4710 C.3     1  UNL1       -0.0002
     14 C           0.2776    1.1768    1.1006 C.ar    1  UNL1       -0.0383
     15 C           1.7223   -0.1933   -0.2936 C.ar    1  UNL1        0.1669
     16 C          -0.0139   -2.7671   -0.4734 C.2     1  UNL1       -0.0447
     17 C          -0.8255   -2.8188    0.5931 C.2     1  UNL1       -0.0560
     18 C          -3.9219    1.4671   -1.0542 C.3     1  UNL1       -0.0125
     19 C           1.4137    1.6354    1.7672 C.ar    1  UNL1       -0.0546
     20 C           2.8570    0.2531    0.3451 C.ar    1  UNL1        0.1618
     21 C           2.6946    1.1888    1.3773 C.ar    1  UNL1       -0.0160
     22 C           4.8032    0.4860   -1.0020 C.3     1  UNL1        0.0790
     23 H          -2.6192   -0.9131   -0.6252 H       1  UNL1        0.0354
     24 H          -3.1265    0.6969    1.2717 H       1  UNL1        0.0469
     25 H          -0.0257   -1.7616   -2.3395 H       1  UNL1        0.0787
     26 H          -1.6267    0.1608   -2.6517 H       1  UNL1        0.0287
     27 H          -0.0472    0.9279   -2.5606 H       1  UNL1        0.0287
     28 H          -1.1017   -1.2557    1.9960 H       1  UNL1        0.0641
     29 H          -1.2634    1.0903    2.5436 H       1  UNL1        0.0329
     30 H          -1.2789    2.5679    1.5892 H       1  UNL1        0.0329
     31 H          -0.8124    2.6258   -1.0593 H       1  UNL1        0.0427
     32 H          -1.9834    2.5275   -2.3299 H       1  UNL1        0.0427
     33 H           0.5255   -3.6639   -0.7663 H       1  UNL1        0.0606
     34 H          -0.9023   -3.7524    1.1443 H       1  UNL1        0.0596
     35 H          -3.9037    0.5473   -1.6468 H       1  UNL1        0.0391
     36 H          -4.2449    2.2823   -1.7116 H       1  UNL1        0.0391
     37 H          -4.6972    1.3680   -0.2865 H       1  UNL1        0.0391
     38 H           1.3204    2.3208    2.6052 H       1  UNL1        0.0622
     39 H          -3.3383   -2.5115    0.7792 H       1  UNL1        0.2102
     40 H           3.5657    1.5566    1.9153 H       1  UNL1        0.0655
     41 H           4.2505    0.4551   -1.9462 H       1  UNL1        0.0660
     42 H           5.7681   -0.0084   -1.1430 H       1  UNL1        0.0660
     43 H           4.9796    1.5237   -0.7016 H       1  UNL1        0.0660
@<TRIPOS>BOND
     1     1     8    1
     2     1    15    1
     3     2    11    1
     4     2    39    1
     5     3    20    1
     6     3    22    1
     7     4     7    1
     8     4    13    1
     9     4    18    1
    10     5     6    1
    11     5     8    1
    12     5     9    1
    13     5    10    1
    14     6     7    1
    15     6    11    1
    16     6    23    1
    17     7    12    1
    18     7    24    1
    19     8    16    1
    20     8    25    1
    21     9    13    1
    22     9    26    1
    23     9    27    1
    24    10    14   ar
    25    10    15   ar
    26    11    17    1
    27    11    28    1
    28    12    14    1
    29    12    29    1
    30    12    30    1
    31    13    31    1
    32    13    32    1
    33    14    19   ar
    34    15    20   ar
    35    16    17    2
    36    16    33    1
    37    17    34    1
    38    18    35    1
    39    18    36    1
    40    18    37    1
    41    19    21   ar
    42    19    38    1
    43    20    21   ar
    44    21    40    1
    45    22    41    1
    46    22    42    1
    47    22    43    1
@<TRIPOS>MOLECULE
15816738
 46 50 0 0 0
SMALL
GASTEIGER

@<TRIPOS>ATOM
      1 O           2.3799   -0.4376   -1.3809 O.3     1  UNL1       -0.4811
      2 O           3.3484   -2.4393   -0.0218 O.3     1  UNL1       -0.3841
      3 O           4.0162    1.8597   -0.6813 O.3     1  UNL1       -0.4914
      4 O          -4.6959    0.7510   -0.9401 O.3     1  UNL1       -0.4535
      5 O          -4.5989   -0.2354    1.1194 O.2     1  UNL1       -0.2263
      6 N          -2.6615   -0.0052   -0.1535 N.am    1  UNL1       -0.2635
      7 C           0.0857   -0.7875   -0.6597 C.3     1  UNL1        0.0485
      8 C          -0.7598   -1.4894    0.4104 C.3     1  UNL1        0.0095
      9 C          -1.7634   -0.4311    0.9497 C.3     1  UNL1        0.0402
     10 C           1.3795   -1.4877   -1.1357 C.3     1  UNL1        0.1399
     11 C          -0.8275   -0.3816   -1.8341 C.3     1  UNL1       -0.0231
     12 C           0.7279    0.4187   -0.0588 C.ar    1  UNL1        0.0116
     13 C          -1.0836    0.8118    1.6039 C.3     1  UNL1       -0.0079
     14 C          -2.0340    0.4588   -1.4006 C.3     1  UNL1        0.0191
     15 C           0.2024    1.2226    0.9374 C.ar    1  UNL1       -0.0380
     16 C           1.9354   -2.5623   -0.1631 C.3     1  UNL1        0.1110
     17 C           0.0904   -2.1319    1.4724 C.2     1  UNL1       -0.0796
     18 C           1.9995    0.5912   -0.5598 C.ar    1  UNL1        0.1666
     19 C           1.3168   -2.6030    1.2059 C.2     1  UNL1       -0.0559
     20 C           0.9696    2.3160    1.3430 C.ar    1  UNL1       -0.0545
     21 C           2.7707    1.6680   -0.1821 C.ar    1  UNL1        0.1618
     22 C          -4.0354    0.1381    0.0921 C.2     1  UNL1        0.4029
     23 C           2.2368    2.5462    0.7699 C.ar    1  UNL1       -0.0160
     24 C           5.1055    1.2688    0.0311 C.3     1  UNL1        0.0790
     25 C          -6.1045    0.9408   -0.7637 C.3     1  UNL1        0.0833
     26 H          -1.3387   -2.3016   -0.0533 H       1  UNL1        0.0371
     27 H          -2.3882   -0.8987    1.7209 H       1  UNL1        0.0511
     28 H           1.2151   -1.9743   -2.1059 H       1  UNL1        0.0772
     29 H          -1.2000   -1.2971   -2.3132 H       1  UNL1        0.0290
     30 H          -0.2733    0.1669   -2.6064 H       1  UNL1        0.0290
     31 H          -0.8406    0.5569    2.6436 H       1  UNL1        0.0331
     32 H          -1.7776    1.6605    1.6246 H       1  UNL1        0.0331
     33 H          -1.7362    1.5010   -1.2372 H       1  UNL1        0.0466
     34 H          -2.7667    0.4705   -2.2142 H       1  UNL1        0.0466
     35 H           1.7526   -3.5457   -0.6153 H       1  UNL1        0.0675
     36 H          -0.3228   -2.2566    2.4689 H       1  UNL1        0.0573
     37 H           1.8645   -3.1008    2.0017 H       1  UNL1        0.0596
     38 H           0.6078    2.9826    2.1212 H       1  UNL1        0.0622
     39 H           2.8188    3.4019    1.1045 H       1  UNL1        0.0655
     40 H           3.6659   -3.1957    0.5006 H       1  UNL1        0.2104
     41 H           4.9941    0.1807    0.0680 H       1  UNL1        0.0660
     42 H           5.1649    1.6765    1.0451 H       1  UNL1        0.0660
     43 H           6.0311    1.5092   -0.4989 H       1  UNL1        0.0660
     44 H          -6.2943    1.5802    0.1036 H       1  UNL1        0.0661
     45 H          -6.6052   -0.0254   -0.6508 H       1  UNL1        0.0661
     46 H          -6.4945    1.4361   -1.6568 H       1  UNL1        0.0661
@<TRIPOS>BOND
     1     1    10    1
     2     1    18    1
     3     2    16    1
     4     2    40    1
     5     3    21    1
     6     3    24    1
     7     4    22    1
     8     4    25    1
     9     5    22    2
    10     6     9    1
    11     6    14    1
    12     6    22   am
    13     7     8    1
    14     7    10    1
    15     7    11    1
    16     7    12    1
    17     8     9    1
    18     8    17    1
    19     8    26    1
    20     9    13    1
    21     9    27    1
    22    10    16    1
    23    10    28    1
    24    11    14    1
    25    11    29    1
    26    11    30    1
    27    12    15   ar
    28    12    18   ar
    29    13    15    1
    30    13    31    1
    31    13    32    1
    32    14    33    1
    33    14    34    1
    34    15    20   ar
    35    16    19    1
    36    16    35    1
    37    17    19    2
    38    17    36    1
    39    18    21   ar
    40    19    37    1
    41    20    23   ar
    42    20    38    1
    43    21    23   ar
    44    23    39    1
    45    24    41    1
    46    24    42    1
    47    24    43    1
    48    25    44    1
    49    25    45    1
    50    25    46    1
@<TRIPOS>MOLECULE
134823885
 62 66 0 0 0
SMALL
GASTEIGER

@<TRIPOS>ATOM
      1 O           0.2803   -1.0900    0.7234 O.3     1  UNL1       -0.4763
      2 O           2.3058    0.2423   -0.8951 O.3     1  UNL1       -0.4257
      3 O          -0.4850   -3.8647    0.2649 O.3     1  UNL1       -0.4914
      4 O           2.9270    2.3328   -0.0946 O.2     1  UNL1       -0.2486
      5 N          -3.5878    2.4398    0.8248 N.3     1  UNL1       -0.3018
      6 N           5.4900    1.7422   -1.0304 N.3     1  UNL1       -0.3182
      7 C          -1.2136    0.8075    0.4785 C.3     1  UNL1        0.0492
      8 C          -1.6264    1.8902   -0.5245 C.3     1  UNL1       -0.0079
      9 C          -3.1874    1.9452   -0.5144 C.3     1  UNL1        0.0181
     10 C           0.2622    0.3583    0.4642 C.3     1  UNL1        0.1671
     11 C          -1.6968    1.2083    1.8884 C.3     1  UNL1       -0.0262
     12 C          -1.8276   -0.4848    0.0755 C.ar    1  UNL1        0.0116
     13 C          -3.8424    0.5767   -0.9277 C.3     1  UNL1       -0.0113
     14 C          -1.0231    1.6820   -1.9266 C.3     1  UNL1       -0.0260
     15 C          -3.1940    1.5564    1.9269 C.3     1  UNL1       -0.0002
     16 C          -3.0639   -0.6480   -0.5204 C.ar    1  UNL1       -0.0383
     17 C          -0.9510   -1.5256    0.2978 C.ar    1  UNL1        0.1671
     18 C           0.9832    0.6373   -0.8352 C.2     1  UNL1        0.1461
     19 C           0.4073    1.2260   -1.8939 C.2     1  UNL1       -0.0417
     20 C          -4.9977    2.8055    0.9111 C.3     1  UNL1       -0.0125
     21 C          -3.4589   -1.9564   -0.7997 C.ar    1  UNL1       -0.0546
     22 C          -1.3244   -2.8249    0.0389 C.ar    1  UNL1        0.1618
     23 C          -2.6002   -3.0366   -0.5036 C.ar    1  UNL1       -0.0160
     24 C           3.1999    1.2050   -0.4879 C.2     1  UNL1        0.3294
     25 C           4.6122    0.6450   -0.6207 C.3     1  UNL1        0.1064
     26 C          -0.9697   -5.1751   -0.0375 C.3     1  UNL1        0.0790
     27 C           5.0771   -0.0401    0.6897 C.3     1  UNL1       -0.0185
     28 C           4.2014   -1.2447    1.1005 C.3     1  UNL1       -0.0514
     29 C           5.1564    0.9418    1.8703 C.3     1  UNL1       -0.0605
     30 C           4.1469   -2.3516    0.0575 C.3     1  UNL1       -0.0650
     31 H          -1.2373    2.8572   -0.1683 H       1  UNL1        0.0329
     32 H          -3.4996    2.7007   -1.2478 H       1  UNL1        0.0469
     33 H           0.8186    0.8389    1.2786 H       1  UNL1        0.0825
     34 H          -1.1253    2.0860    2.2200 H       1  UNL1        0.0287
     35 H          -1.4989    0.4140    2.6197 H       1  UNL1        0.0287
     36 H          -3.9113    0.5653   -2.0238 H       1  UNL1        0.0329
     37 H          -4.8691    0.4957   -0.5576 H       1  UNL1        0.0329
     38 H          -1.0771    2.6341   -2.4689 H       1  UNL1        0.0312
     39 H          -1.5956    0.9611   -2.5197 H       1  UNL1        0.0312
     40 H          -3.7904    0.6357    1.9250 H       1  UNL1        0.0427
     41 H          -3.3970    2.0511    2.8851 H       1  UNL1        0.0427
     42 H           0.9861    1.3705   -2.8027 H       1  UNL1        0.0606
     43 H          -5.2748    3.4869    0.0993 H       1  UNL1        0.0391
     44 H          -5.1913    3.3432    1.8462 H       1  UNL1        0.0391
     45 H          -5.6663    1.9395    0.8805 H       1  UNL1        0.0391
     46 H          -4.4202   -2.1514   -1.2677 H       1  UNL1        0.0622
     47 H          -2.9814   -4.0226   -0.7518 H       1  UNL1        0.0655
     48 H           4.6239   -0.0772   -1.4449 H       1  UNL1        0.0577
     49 H          -0.1741   -5.8819    0.2195 H       1  UNL1        0.0660
     50 H          -1.1700   -5.2895   -1.1081 H       1  UNL1        0.0660
     51 H          -1.8402   -5.4314    0.5757 H       1  UNL1        0.0660
     52 H           6.0950   -0.4188    0.5199 H       1  UNL1        0.0318
     53 H           6.4431    1.3957   -1.1327 H       1  UNL1        0.1190
     54 H           5.2094    2.0808   -1.9501 H       1  UNL1        0.1190
     55 H           3.1836   -0.9213    1.3453 H       1  UNL1        0.0266
     56 H           4.6111   -1.6759    2.0232 H       1  UNL1        0.0266
     57 H           4.1690    1.3267    2.1450 H       1  UNL1        0.0233
     58 H           5.8065    1.7925    1.6438 H       1  UNL1        0.0233
     59 H           5.5724    0.4435    2.7531 H       1  UNL1        0.0233
     60 H           3.6262   -2.0397   -0.8509 H       1  UNL1        0.0230
     61 H           3.6094   -3.2164    0.4605 H       1  UNL1        0.0230
     62 H           5.1544   -2.6800   -0.2171 H       1  UNL1        0.0230
@<TRIPOS>BOND
     1     1    10    1
     2     1    17    1
     3     2    18    1
     4     2    24    1
     5     3    22    1
     6     3    26    1
     7     4    24    2
     8     5     9    1
     9     5    15    1
    10     5    20    1
    11     6    25    1
    12     6    53    1
    13     6    54    1
    14     7     8    1
    15     7    10    1
    16     7    11    1
    17     7    12    1
    18     8     9    1
    19     8    14    1
    20     8    31    1
    21     9    13    1
    22     9    32    1
    23    10    18    1
    24    10    33    1
    25    11    15    1
    26    11    34    1
    27    11    35    1
    28    12    16   ar
    29    12    17   ar
    30    13    16    1
    31    13    36    1
    32    13    37    1
    33    14    19    1
    34    14    38    1
    35    14    39    1
    36    15    40    1
    37    15    41    1
    38    16    21   ar
    39    17    22   ar
    40    18    19    2
    41    19    42    1
    42    20    43    1
    43    20    44    1
    44    20    45    1
    45    21    23   ar
    46    21    46    1
    47    22    23   ar
    48    23    47    1
    49    24    25    1
    50    25    27    1
    51    25    48    1
    52    26    49    1
    53    26    50    1
    54    26    51    1
    55    27    28    1
    56    27    29    1
    57    27    52    1
    58    28    30    1
    59    28    55    1
    60    28    56    1
    61    29    57    1
    62    29    58    1
    63    29    59    1
    64    30    60    1
    65    30    61    1
    66    30    62    1
@<TRIPOS>MOLECULE
273031
 59 64 0 0 0
SMALL
GASTEIGER

@<TRIPOS>ATOM
      1 S           2.8538    0.5439   -1.1873 S.O2    1  UNL1        0.1126
      2 O          -1.0554    1.4386    1.3179 O.3     1  UNL1       -0.4810
      3 O           1.7237    0.1683   -0.0745 O.3     1  UNL1       -0.2231
      4 O          -2.6667    3.8445    0.9275 O.3     1  UNL1       -0.4914
      5 O           2.8904    1.9828   -1.3622 O.2     1  UNL1       -0.1419
      6 O           2.6868   -0.3523   -2.3158 O.2     1  UNL1       -0.1419
      7 N          -3.5097   -3.0750    0.5563 N.3     1  UNL1       -0.3015
      8 C          -1.7249   -0.7859    0.6585 C.3     1  UNL1        0.0481
      9 C          -1.6128   -1.8761   -0.4125 C.3     1  UNL1        0.0064
     10 C          -3.0637   -2.3906   -0.6823 C.3     1  UNL1        0.0213
     11 C          -0.5095    0.1367    0.8760 C.3     1  UNL1        0.1424
     12 C          -2.2422   -1.4343    1.9607 C.3     1  UNL1       -0.0263
     13 C          -2.6811    0.2700    0.2228 C.ar    1  UNL1        0.0116
     14 C          -4.0190   -1.2602   -1.2023 C.3     1  UNL1       -0.0110
     15 C          -3.5522   -2.2140    1.7434 C.3     1  UNL1       -0.0001
     16 C           0.3494    0.3991   -0.3917 C.3     1  UNL1        0.1435
     17 C          -3.7879    0.0911   -0.5829 C.ar    1  UNL1       -0.0383
     18 C          -0.8643   -1.4246   -1.6335 C.2     1  UNL1       -0.0798
     19 C          -2.2776    1.5028    0.6917 C.ar    1  UNL1        0.1666
     20 C           0.0229   -0.4215   -1.6059 C.2     1  UNL1       -0.0533
     21 C          -4.7537   -3.8200    0.3939 C.3     1  UNL1       -0.0124
     22 C          -4.5663    1.2197   -0.8407 C.ar    1  UNL1       -0.0546
     23 C          -3.0380    2.6266    0.4635 C.ar    1  UNL1        0.1618
     24 C          -4.2016    2.4736   -0.3041 C.ar    1  UNL1       -0.0160
     25 C           4.3761    0.1111   -0.4057 C.ar    1  UNL1        0.1171
     26 C          -1.8468    4.6481    0.0759 C.3     1  UNL1        0.0790
     27 C           4.8800   -1.1696   -0.5640 C.ar    1  UNL1       -0.0341
     28 C           5.0423    1.0596    0.3530 C.ar    1  UNL1       -0.0341
     29 C           6.0833   -1.5112    0.0535 C.ar    1  UNL1       -0.0570
     30 C           6.2455    0.7181    0.9704 C.ar    1  UNL1       -0.0570
     31 C           6.7659   -0.5674    0.8206 C.ar    1  UNL1       -0.0503
     32 C           8.0531   -0.9321    1.4797 C.3     1  UNL1       -0.0397
     33 H          -1.0220   -2.7167   -0.0163 H       1  UNL1        0.0368
     34 H          -3.0077   -3.1574   -1.4674 H       1  UNL1        0.0472
     35 H           0.1234   -0.2324    1.6925 H       1  UNL1        0.0772
     36 H          -2.4024   -0.6868    2.7483 H       1  UNL1        0.0287
     37 H          -1.4775   -2.1255    2.3403 H       1  UNL1        0.0287
     38 H          -5.0699   -1.5437   -1.0879 H       1  UNL1        0.0329
     39 H          -3.8443   -1.1526   -2.2814 H       1  UNL1        0.0329
     40 H          -3.7260   -2.8289    2.6354 H       1  UNL1        0.0427
     41 H          -4.3943   -1.5130    1.6862 H       1  UNL1        0.0427
     42 H           0.2571    1.4568   -0.6714 H       1  UNL1        0.0702
     43 H          -1.0506   -1.9404   -2.5711 H       1  UNL1        0.0573
     44 H           0.4245   -0.1151   -2.5667 H       1  UNL1        0.0596
     45 H          -4.9237   -4.4651    1.2633 H       1  UNL1        0.0391
     46 H          -4.7023   -4.4818   -0.4774 H       1  UNL1        0.0391
     47 H          -5.6277   -3.1699    0.2854 H       1  UNL1        0.0391
     48 H          -5.4492    1.1462   -1.4701 H       1  UNL1        0.0622
     49 H          -4.8246    3.3388   -0.5200 H       1  UNL1        0.0655
     50 H          -2.3732    4.8772   -0.8559 H       1  UNL1        0.0660
     51 H          -0.9028    4.1376   -0.1399 H       1  UNL1        0.0660
     52 H          -1.6287    5.5848    0.5959 H       1  UNL1        0.0660
     53 H           4.3604   -1.9209   -1.1506 H       1  UNL1        0.0637
     54 H           4.6508    2.0629    0.4896 H       1  UNL1        0.0637
     55 H           6.4788   -2.5159   -0.0708 H       1  UNL1        0.0621
     56 H           6.7684    1.4621    1.5657 H       1  UNL1        0.0621
     57 H           8.1933   -0.3716    2.4103 H       1  UNL1        0.0278
     58 H           8.0762   -1.9957    1.7403 H       1  UNL1        0.0278
     59 H           8.8920   -0.7165    0.8106 H       1  UNL1        0.0278
@<TRIPOS>BOND
     1     1     3    1
     2     1     5    2
     3     1     6    2
     4     1    25    1
     5     2    11    1
     6     2    19    1
     7     3    16    1
     8     4    23    1
     9     4    26    1
    10     7    10    1
    11     7    15    1
    12     7    21    1
    13     8     9    1
    14     8    11    1
    15     8    12    1
    16     8    13    1
    17     9    10    1
    18     9    18    1
    19     9    33    1
    20    10    14    1
    21    10    34    1
    22    11    16    1
    23    11    35    1
    24    12    15    1
    25    12    36    1
    26    12    37    1
    27    13    17   ar
    28    13    19   ar
    29    14    17    1
    30    14    38    1
    31    14    39    1
    32    15    40    1
    33    15    41    1
    34    16    20    1
    35    16    42    1
    36    17    22   ar
    37    18    20    2
    38    18    43    1
    39    19    23   ar
    40    20    44    1
    41    21    45    1
    42    21    46    1
    43    21    47    1
    44    22    24   ar
    45    22    48    1
    46    23    24   ar
    47    24    49    1
    48    25    27   ar
    49    25    28   ar
    50    26    50    1
    51    26    51    1
    52    26    52    1
    53    27    29   ar
    54    27    53    1
    55    28    30   ar
    56    28    54    1
    57    29    31   ar
    58    29    55    1
    59    30    31   ar
    60    30    56    1
    61    31    32    1
    62    32    57    1
    63    32    58    1
    64    32    59    1
@<TRIPOS>MOLECULE
520825
 54 59 0 0 0
SMALL
GASTEIGER

@<TRIPOS>ATOM
      1 O           0.7540   -1.8454    0.7374 O.3     1  UNL1       -0.4799
      2 O          -2.1627   -0.9369   -0.6566 O.3     1  UNL1       -0.4499
      3 O           2.8484   -3.7828    0.1073 O.3     1  UNL1       -0.4914
      4 O          -2.2302    1.2681    0.0011 O.2     1  UNL1       -0.2449
      5 N           2.2436    3.1282    0.8814 N.3     1  UNL1       -0.3015
      6 N          -6.4420    0.8339    0.0224 N.ar    1  UNL1       -0.2624
      7 C           0.9735    0.5462    0.4860 C.3     1  UNL1        0.0491
      8 C           0.6851    1.7566   -0.4085 C.3     1  UNL1        0.0064
      9 C           2.0072    2.5869   -0.4796 C.3     1  UNL1        0.0213
     10 C          -0.0311   -0.6226    0.4609 C.3     1  UNL1        0.1509
     11 C           1.2841    1.0563    1.9097 C.3     1  UNL1       -0.0263
     12 C           2.1479   -0.2102   -0.0312 C.ar    1  UNL1        0.0116
     13 C           3.2003    1.7725   -1.0914 C.3     1  UNL1       -0.0110
     14 C           2.4108    2.1058    1.9203 C.3     1  UNL1       -0.0001
     15 C           3.2286    0.3177   -0.7093 C.ar    1  UNL1       -0.0383
     16 C          -0.7575   -0.8335   -0.8960 C.3     1  UNL1        0.1590
     17 C           0.1038    1.3771   -1.7400 C.2     1  UNL1       -0.0788
     18 C           1.9899   -1.5595    0.2075 C.ar    1  UNL1        0.1666
     19 C          -0.5546    0.2277   -1.9386 C.2     1  UNL1       -0.0439
     20 C           3.3106    4.1219    0.9354 C.3     1  UNL1       -0.0124
     21 C           4.2364   -0.5741   -1.0766 C.ar    1  UNL1       -0.0546
     22 C           2.9778   -2.4552   -0.1314 C.ar    1  UNL1        0.1618
     23 C           4.1176   -1.9474   -0.7715 C.ar    1  UNL1       -0.0160
     24 C          -2.7697    0.1930   -0.2097 C.2     1  UNL1        0.3413
     25 C           3.3175   -4.2710    1.3664 C.3     1  UNL1        0.0790
     26 C          -4.2200   -0.0456    0.0005 C.ar    1  UNL1        0.0770
     27 C          -4.6640   -1.2978    0.3505 C.ar    1  UNL1       -0.0449
     28 C          -5.1102    0.9830   -0.1547 C.ar    1  UNL1        0.0415
     29 C          -6.0278   -1.4905    0.5414 C.ar    1  UNL1       -0.0428
     30 C          -6.8673   -0.4023    0.3668 C.ar    1  UNL1        0.0276
     31 H          -0.0700    2.3991    0.0669 H       1  UNL1        0.0368
     32 H           1.8284    3.4480   -1.1385 H       1  UNL1        0.0472
     33 H          -0.7442   -0.5422    1.2896 H       1  UNL1        0.0783
     34 H           1.5607    0.2340    2.5822 H       1  UNL1        0.0287
     35 H           0.3752    1.5081    2.3299 H       1  UNL1        0.0287
     36 H           4.1625    2.2357   -0.8516 H       1  UNL1        0.0329
     37 H           3.1012    1.8151   -2.1846 H       1  UNL1        0.0329
     38 H           2.4115    2.5842    2.9078 H       1  UNL1        0.0427
     39 H           3.3825    1.6058    1.8219 H       1  UNL1        0.0427
     40 H          -0.4580   -1.7922   -1.3359 H       1  UNL1        0.0817
     41 H           0.1712    2.0936   -2.5536 H       1  UNL1        0.0574
     42 H          -0.9779    0.0387   -2.9223 H       1  UNL1        0.0607
     43 H           3.3023    4.6324    1.9051 H       1  UNL1        0.0391
     44 H           3.1618    4.8972    0.1760 H       1  UNL1        0.0391
     45 H           4.3051    3.6861    0.7968 H       1  UNL1        0.0391
     46 H           5.1121   -0.2222   -1.6152 H       1  UNL1        0.0622
     47 H           4.9162   -2.6231   -1.0698 H       1  UNL1        0.0655
     48 H           2.7669   -3.8010    2.1875 H       1  UNL1        0.0660
     49 H           4.3901   -4.0811    1.4738 H       1  UNL1        0.0660
     50 H           3.1461   -5.3502    1.4003 H       1  UNL1        0.0660
     51 H          -3.9913   -2.1373    0.4960 H       1  UNL1        0.0627
     52 H          -4.7997    1.9845   -0.4330 H       1  UNL1        0.0838
     53 H          -6.4210   -2.4612    0.8213 H       1  UNL1        0.0633
     54 H          -7.9390   -0.5000    0.5049 H       1  UNL1        0.0829
@<TRIPOS>BOND
     1     1    10    1
     2     1    18    1
     3     2    16    1
     4     2    24    1
     5     3    22    1
     6     3    25    1
     7     4    24    2
     8     5     9    1
     9     5    14    1
    10     5    20    1
    11     6    28   ar
    12     6    30   ar
    13     7     8    1
    14     7    10    1
    15     7    11    1
    16     7    12    1
    17     8     9    1
    18     8    17    1
    19     8    31    1
    20     9    13    1
    21     9    32    1
    22    10    16    1
    23    10    33    1
    24    11    14    1
    25    11    34    1
    26    11    35    1
    27    12    15   ar
    28    12    18   ar
    29    13    15    1
    30    13    36    1
    31    13    37    1
    32    14    38    1
    33    14    39    1
    34    15    21   ar
    35    16    19    1
    36    16    40    1
    37    17    19    2
    38    17    41    1
    39    18    22   ar
    40    19    42    1
    41    20    43    1
    42    20    44    1
    43    20    45    1
    44    21    23   ar
    45    21    46    1
    46    22    23   ar
    47    23    47    1
    48    24    26    1
    49    25    48    1
    50    25    49    1
    51    25    50    1
    52    26    27   ar
    53    26    28   ar
    54    27    29   ar
    55    27    51    1
    56    28    52    1
    57    29    30   ar
    58    29    53    1
    59    30    54    1
@<TRIPOS>MOLECULE
5359929
 44 48 0 0 0
SMALL
GASTEIGER

@<TRIPOS>ATOM
      1 O           1.8156    0.7702    1.2589 O.3     1  UNL1       -0.4811
      2 O          -3.9892   -1.6042   -0.0220 O.co2   1  UNL1       -0.7753
      3 O           2.4019    2.8725   -0.2035 O.3     1  UNL1       -0.3841
      4 O           3.7632   -1.3193    0.7372 O.3     1  UNL1       -0.4914
      5 N          -3.2553   -0.4780    0.2971 N.3     1  UNL1        0.2178
      6 C          -0.5310    0.6904    0.6072 C.3     1  UNL1        0.0553
      7 C          -1.4633    1.1407   -0.5267 C.3     1  UNL1        0.0338
      8 C          -2.3439   -0.0912   -0.8944 C.3     1  UNL1       -0.0105
      9 C           0.6519    1.6214    0.9696 C.3     1  UNL1        0.1402
     10 C          -1.3593    0.2813    1.8428 C.3     1  UNL1        0.0014
     11 C           0.2747   -0.4687    0.1203 C.ar    1  UNL1        0.0120
     12 C          -2.4243   -0.7738    1.5323 C.3     1  UNL1       -0.0317
     13 C          -1.5000   -1.3092   -1.4081 C.3     1  UNL1        0.0164
     14 C          -0.1480   -1.4471   -0.7607 C.ar    1  UNL1       -0.0345
     15 C           0.9935    2.6786   -0.1130 C.3     1  UNL1        0.1110
     16 C          -0.6915    1.7212   -1.6850 C.2     1  UNL1       -0.0761
     17 C           1.5716   -0.3902    0.5754 C.ar    1  UNL1        0.1666
     18 C           0.4437    2.4081   -1.4883 C.2     1  UNL1       -0.0558
     19 C          -4.2593    0.6054    0.5958 C.3     1  UNL1       -0.0436
     20 C           0.7655   -2.4526   -1.0822 C.ar    1  UNL1       -0.0544
     21 C           2.4885   -1.3747    0.2792 C.ar    1  UNL1        0.1618
     22 C           2.0690   -2.4250   -0.5471 C.ar    1  UNL1       -0.0160
     23 C           4.7259   -0.6556   -0.0846 C.3     1  UNL1        0.0790
     24 H          -2.1035    1.9566   -0.1724 H       1  UNL1        0.0408
     25 H          -3.0592    0.1731   -1.6849 H       1  UNL1        0.0859
     26 H           0.4446    2.1616    1.9023 H       1  UNL1        0.0772
     27 H          -1.8464    1.1747    2.2529 H       1  UNL1        0.0327
     28 H          -0.7121   -0.1053    2.6408 H       1  UNL1        0.0327
     29 H          -1.9706   -1.7570    1.3638 H       1  UNL1        0.0814
     30 H          -3.1287   -0.8813    2.3654 H       1  UNL1        0.0814
     31 H          -1.3269   -1.1598   -2.4821 H       1  UNL1        0.0368
     32 H          -2.0461   -2.2517   -1.3004 H       1  UNL1        0.0368
     33 H           0.5697    3.6403    0.2019 H       1  UNL1        0.0675
     34 H          -1.0886    1.6164   -2.6899 H       1  UNL1        0.0575
     35 H           0.9458    2.8520   -2.3432 H       1  UNL1        0.0596
     36 H          -4.9626    0.2038    1.3318 H       1  UNL1        0.0777
     37 H          -3.7559    1.4821    1.0014 H       1  UNL1        0.0777
     38 H          -4.7827    0.8386   -0.3352 H       1  UNL1        0.0777
     39 H           0.4878   -3.2486   -1.7679 H       1  UNL1        0.0622
     40 H           2.7659   -3.2158   -0.8150 H       1  UNL1        0.0655
     41 H           2.8006    2.0262   -0.4681 H       1  UNL1        0.2104
     42 H           4.4716    0.4029   -0.1926 H       1  UNL1        0.0660
     43 H           4.7856   -1.1319   -1.0684 H       1  UNL1        0.0660
     44 H           5.7018   -0.7332    0.4022 H       1  UNL1        0.0660
@<TRIPOS>UNITY_ATOM_ATTR
2 1
charge -1
5 1
charge 1
@<TRIPOS>BOND
     1     1     9    1
     2     1    17    1
     3     2     5    1
     4     3    15    1
     5     3    41    1
     6     4    21    1
     7     4    23    1
     8     5     8    1
     9     5    12    1
    10     5    19    1
    11     6     7    1
    12     6     9    1
    13     6    10    1
    14     6    11    1
    15     7     8    1
    16     7    16    1
    17     7    24    1
    18     8    13    1
    19     8    25    1
    20     9    15    1
    21     9    26    1
    22    10    12    1
    23    10    27    1
    24    10    28    1
    25    11    14   ar
    26    11    17   ar
    27    12    29    1
    28    12    30    1
    29    13    14    1
    30    13    31    1
    31    13    32    1
    32    14    20   ar
    33    15    18    1
    34    15    33    1
    35    16    18    2
    36    16    34    1
    37    17    21   ar
    38    18    35    1
    39    19    36    1
    40    19    37    1
    41    19    38    1
    42    20    22   ar
    43    20    39    1
    44    21    22   ar
    45    22    40    1
    46    23    42    1
    47    23    43    1
    48    23    44    1
@<TRIPOS>MOLECULE
5702288
 43 47 0 0 0
SMALL
GASTEIGER

@<TRIPOS>ATOM
      1 O          -1.5926   -1.0371    1.1890 O.3     1  UNL1       -0.4811
      2 O          -1.8298   -3.2224   -0.2208 O.3     1  UNL1       -0.3841
      3 O          -3.7490    0.7880    0.5181 O.3     1  UNL1       -0.4914
      4 N           3.2987    0.7132    0.4612 N.3     1  UNL1       -0.3015
      5 C           0.7585   -0.6767    0.6654 C.3     1  UNL1        0.0480
      6 C           1.8071   -1.0215   -0.4031 C.3     1  UNL1        0.0064
      7 C           2.5499    0.3087   -0.7532 C.3     1  UNL1        0.0213
      8 C          -0.3170   -1.7404    0.9876 C.3     1  UNL1        0.1399
      9 C           1.4691   -0.1453    1.9259 C.3     1  UNL1       -0.0263
     10 C          -0.1533    0.3674    0.1106 C.ar    1  UNL1        0.0116
     11 C           1.5897    1.4045   -1.3316 C.3     1  UNL1       -0.0110
     12 C           2.4454    1.0021    1.6181 C.3     1  UNL1       -0.0001
     13 C           0.1967    1.3820   -0.7621 C.ar    1  UNL1       -0.0383
     14 C          -0.4599   -2.8532   -0.0835 C.3     1  UNL1        0.1110
     15 C           1.1865   -1.7246   -1.5833 C.2     1  UNL1       -0.0799
     16 C          -1.4545    0.1347    0.4954 C.ar    1  UNL1        0.1666
     17 C           0.1370   -2.5460   -1.4311 C.2     1  UNL1       -0.0559
     18 C           4.2548    1.7894    0.2223 C.3     1  UNL1       -0.0124
     19 C          -0.8133    2.2630   -1.1520 C.ar    1  UNL1       -0.0546
     20 C          -2.4665    0.9951    0.1305 C.ar    1  UNL1        0.1618
     21 C          -2.1323    2.0799   -0.6902 C.ar    1  UNL1       -0.0160
     22 C          -4.7250    1.7390    0.0868 C.3     1  UNL1        0.0790
     23 H           2.5432   -1.7264    0.0123 H       1  UNL1        0.0368
     24 H           3.2945    0.0818   -1.5287 H       1  UNL1        0.0472
     25 H          -0.0988   -2.2310    1.9450 H       1  UNL1        0.0772
     26 H           2.0307   -0.9692    2.3866 H       1  UNL1        0.0287
     27 H           0.7460    0.1975    2.6771 H       1  UNL1        0.0287
     28 H           1.4978    1.2208   -2.4108 H       1  UNL1        0.0329
     29 H           2.0137    2.4078   -1.2265 H       1  UNL1        0.0329
     30 H           1.8878    1.9355    1.4712 H       1  UNL1        0.0427
     31 H           3.0705    1.1553    2.5068 H       1  UNL1        0.0427
     32 H           0.0666   -3.7461    0.2781 H       1  UNL1        0.0675
     33 H           1.6268   -1.5936   -2.5669 H       1  UNL1        0.0573
     34 H          -0.2529   -3.0700   -2.2991 H       1  UNL1        0.0596
     35 H           3.7733    2.7539    0.0327 H       1  UNL1        0.0391
     36 H           4.9052    1.5529   -0.6269 H       1  UNL1        0.0391
     37 H           4.9119    1.9101    1.0911 H       1  UNL1        0.0391
     38 H          -0.5953    3.0800   -1.8348 H       1  UNL1        0.0622
     39 H          -2.8599    2.8061   -1.0394 H       1  UNL1        0.0655
     40 H          -2.1650   -3.4350    0.6670 H       1  UNL1        0.2104
     41 H          -4.5126    2.7381    0.4819 H       1  UNL1        0.0660
     42 H          -5.6882    1.4255    0.5021 H       1  UNL1        0.0660
     43 H          -4.8280    1.7389   -1.0034 H       1  UNL1        0.0660
@<TRIPOS>BOND
     1     1     8    1
     2     1    16    1
     3     2    14    1
     4     2    40    1
     5     3    20    1
     6     3    22    1
     7     4     7    1
     8     4    12    1
     9     4    18    1
    10     5     6    1
    11     5     8    1
    12     5     9    1
    13     5    10    1
    14     6     7    1
    15     6    15    1
    16     6    23    1
    17     7    11    1
    18     7    24    1
    19     8    14    1
    20     8    25    1
    21     9    12    1
    22     9    26    1
    23     9    27    1
    24    10    13   ar
    25    10    16   ar
    26    11    13    1
    27    11    28    1
    28    11    29    1
    29    12    30    1
    30    12    31    1
    31    13    19   ar
    32    14    17    1
    33    14    32    1
    34    15    17    2
    35    15    33    1
    36    16    20   ar
    37    17    34    1
    38    18    35    1
    39    18    36    1
    40    18    37    1
    41    19    21   ar
    42    19    38    1
    43    20    21   ar
    44    21    39    1
    45    22    41    1
    46    22    42    1
    47    22    43    1
@<TRIPOS>MOLECULE
6560399
 43 47 0 0 0
SMALL
GASTEIGER

@<TRIPOS>ATOM
      1 O           1.6929   -0.7174    1.2519 O.3     1  UNL1       -0.4811
      2 O           2.2990   -2.7900   -0.2296 O.3     1  UNL1       -0.3841
      3 O           3.5680    1.4146    0.6380 O.3     1  UNL1       -0.4914
      4 N          -3.3810    0.2940    0.4124 N.3     1  UNL1       -0.3015
      5 C          -0.6698   -0.7113    0.6666 C.3     1  UNL1        0.0480
      6 C          -1.6356   -1.2024   -0.4220 C.3     1  UNL1        0.0064
      7 C          -2.5573    0.0065   -0.7869 C.3     1  UNL1        0.0213
      8 C           0.5454   -1.6041    1.0078 C.3     1  UNL1        0.1399
      9 C          -1.4758   -0.2963    1.9135 C.3     1  UNL1       -0.0263
     10 C           0.0887    0.4593    0.1342 C.ar    1  UNL1        0.0116
     11 C          -1.7556    1.2315   -1.3468 C.3     1  UNL1       -0.0110
     12 C          -2.6026    0.6982    1.5874 C.3     1  UNL1       -0.0001
     13 C          -0.3882    1.4143   -0.7451 C.ar    1  UNL1       -0.0383
     14 C           0.8885   -2.6646   -0.0718 C.3     1  UNL1        0.1110
     15 C          -0.8990   -1.8056   -1.5901 C.2     1  UNL1       -0.0799
     16 C           1.3996    0.4233    0.5538 C.ar    1  UNL1        0.1666
     17 C           0.2613   -2.4569   -1.4226 C.2     1  UNL1       -0.0559
     18 C          -4.4776    1.2218    0.1549 C.3     1  UNL1       -0.0124
     19 C           0.4877    2.4387   -1.1081 C.ar    1  UNL1       -0.0546
     20 C           2.2796    1.4278    0.2165 C.ar    1  UNL1        0.1618
     21 C           1.8071    2.4536   -0.6123 C.ar    1  UNL1       -0.0160
     22 C           4.5249    0.7648   -0.2016 C.3     1  UNL1        0.0790
     23 H          -2.2691   -2.0078   -0.0204 H       1  UNL1        0.0368
     24 H          -3.2458   -0.3244   -1.5769 H       1  UNL1        0.0472
     25 H           0.3780   -2.1366    1.9529 H       1  UNL1        0.0772
     26 H          -0.8261    0.1446    2.6806 H       1  UNL1        0.0287
     27 H          -1.9203   -1.1958    2.3606 H       1  UNL1        0.0287
     28 H          -2.3252    2.1614   -1.2545 H       1  UNL1        0.0329
     29 H          -1.6126    1.0638   -2.4230 H       1  UNL1        0.0329
     30 H          -3.2614    0.7544    2.4631 H       1  UNL1        0.0427
     31 H          -2.1842    1.7035    1.4539 H       1  UNL1        0.0427
     32 H           0.5277   -3.6364    0.2897 H       1  UNL1        0.0675
     33 H          -1.3431   -1.7481   -2.5791 H       1  UNL1        0.0573
     34 H           0.7303   -2.9171   -2.2879 H       1  UNL1        0.0596
     35 H          -5.1629    1.2424    1.0099 H       1  UNL1        0.0391
     36 H          -5.0694    0.8974   -0.7081 H       1  UNL1        0.0391
     37 H          -4.1367    2.2464   -0.0235 H       1  UNL1        0.0391
     38 H           0.1680    3.2173   -1.7955 H       1  UNL1        0.0622
     39 H           2.4737    3.2590   -0.9120 H       1  UNL1        0.0655
     40 H           2.4695   -3.5335   -0.8330 H       1  UNL1        0.2104
     41 H           4.5769    1.2602   -1.1762 H       1  UNL1        0.0660
     42 H           4.2685   -0.2916   -0.3288 H       1  UNL1        0.0660
     43 H           5.5042    0.8330    0.2797 H       1  UNL1        0.0660
@<TRIPOS>BOND
     1     1     8    1
     2     1    16    1
     3     2    14    1
     4     2    40    1
     5     3    20    1
     6     3    22    1
     7     4     7    1
     8     4    12    1
     9     4    18    1
    10     5     6    1
    11     5     8    1
    12     5     9    1
    13     5    10    1
    14     6     7    1
    15     6    15    1
    16     6    23    1
    17     7    11    1
    18     7    24    1
    19     8    14    1
    20     8    25    1
    21     9    12    1
    22     9    26    1
    23     9    27    1
    24    10    13   ar
    25    10    16   ar
    26    11    13    1
    27    11    28    1
    28    11    29    1
    29    12    30    1
    30    12    31    1
    31    13    19   ar
    32    14    17    1
    33    14    32    1
    34    15    17    2
    35    15    33    1
    36    16    20   ar
    37    17    34    1
    38    18    35    1
    39    18    36    1
    40    18    37    1
    41    19    21   ar
    42    19    38    1
    43    20    21   ar
    44    21    39    1
    45    22    41    1
    46    22    42    1
    47    22    43    1
@<TRIPOS>MOLECULE
24740239
 43 47 0 0 0
SMALL
GASTEIGER

@<TRIPOS>ATOM
      1 O          -1.5926   -1.0371    1.1890 O.3     1  UNL1       -0.4811
      2 O          -1.8298   -3.2224   -0.2208 O.3     1  UNL1       -0.3841
      3 O          -3.7490    0.7880    0.5181 O.3     1  UNL1       -0.4914
      4 N           3.2987    0.7132    0.4612 N.3     1  UNL1       -0.3015
      5 C           0.7585   -0.6767    0.6654 C.3     1  UNL1        0.0480
      6 C           1.8071   -1.0215   -0.4031 C.3     1  UNL1        0.0064
      7 C           2.5499    0.3087   -0.7532 C.3     1  UNL1        0.0213
      8 C          -0.3170   -1.7404    0.9876 C.3     1  UNL1        0.1399
      9 C           1.4691   -0.1453    1.9259 C.3     1  UNL1       -0.0263
     10 C          -0.1533    0.3674    0.1106 C.ar    1  UNL1        0.0116
     11 C           1.5897    1.4045   -1.3316 C.3     1  UNL1       -0.0110
     12 C           2.4454    1.0021    1.6181 C.3     1  UNL1       -0.0001
     13 C           0.1967    1.3820   -0.7621 C.ar    1  UNL1       -0.0383
     14 C          -0.4599   -2.8532   -0.0835 C.3     1  UNL1        0.1110
     15 C           1.1865   -1.7246   -1.5833 C.2     1  UNL1       -0.0799
     16 C          -1.4545    0.1347    0.4954 C.ar    1  UNL1        0.1666
     17 C           0.1370   -2.5460   -1.4311 C.2     1  UNL1       -0.0559
     18 C           4.2548    1.7894    0.2223 C.3     1  UNL1       -0.0124
     19 C          -0.8133    2.2630   -1.1520 C.ar    1  UNL1       -0.0546
     20 C          -2.4665    0.9951    0.1305 C.ar    1  UNL1        0.1618
     21 C          -2.1323    2.0799   -0.6902 C.ar    1  UNL1       -0.0160
     22 C          -4.7250    1.7390    0.0868 C.3     1  UNL1        0.0790
     23 H           2.5431   -1.7265    0.0124 H       1  UNL1        0.0368
     24 H           3.2945    0.0818   -1.5287 H       1  UNL1        0.0472
     25 H          -0.0990   -2.2308    1.9452 H       1  UNL1        0.0772
     26 H           2.0307   -0.9692    2.3866 H       1  UNL1        0.0287
     27 H           0.7460    0.1975    2.6771 H       1  UNL1        0.0287
     28 H           1.4978    1.2208   -2.4108 H       1  UNL1        0.0329
     29 H           2.0137    2.4078   -1.2265 H       1  UNL1        0.0329
     30 H           1.8878    1.9355    1.4712 H       1  UNL1        0.0427
     31 H           3.0705    1.1553    2.5068 H       1  UNL1        0.0427
     32 H           0.0654   -3.7430    0.2877 H       1  UNL1        0.0675
     33 H           1.6269   -1.5938   -2.5668 H       1  UNL1        0.0573
     34 H          -0.2502   -3.0691   -2.3009 H       1  UNL1        0.0596
     35 H          -0.5953    3.0800   -1.8348 H       1  UNL1        0.0622
     36 H           4.9052    1.5529   -0.6269 H       1  UNL1        0.0391
     37 H           4.9119    1.9101    1.0911 H       1  UNL1        0.0391
     38 H           3.7733    2.7539    0.0327 H       1  UNL1        0.0391
     39 H          -2.8599    2.8061   -1.0394 H       1  UNL1        0.0655
     40 H          -1.8782   -3.9681   -0.8434 H       1  UNL1        0.2104
     41 H          -5.6882    1.4255    0.5021 H       1  UNL1        0.0660
     42 H          -4.8280    1.7389   -1.0034 H       1  UNL1        0.0660
     43 H          -4.5125    2.7381    0.4819 H       1  UNL1        0.0660
@<TRIPOS>BOND
     1     1     8    1
     2     1    16    1
     3     2    14    1
     4     2    40    1
     5     3    20    1
     6     3    22    1
     7     4     7    1
     8     4    12    1
     9     4    18    1
    10     5     6    1
    11     5     8    1
    12     5     9    1
    13     5    10    1
    14     6     7    1
    15     6    15    1
    16     6    23    1
    17     7    11    1
    18     7    24    1
    19     8    14    1
    20     8    25    1
    21     9    12    1
    22     9    26    1
    23     9    27    1
    24    10    13   ar
    25    10    16   ar
    26    11    13    1
    27    11    28    1
    28    11    29    1
    29    12    30    1
    30    12    31    1
    31    13    19   ar
    32    14    17    1
    33    14    32    1
    34    15    17    2
    35    15    33    1
    36    16    20   ar
    37    17    34    1
    38    18    36    1
    39    18    37    1
    40    18    38    1
    41    19    21   ar
    42    19    35    1
    43    20    21   ar
    44    21    39    1
    45    22    41    1
    46    22    42    1
    47    22    43    1
@<TRIPOS>MOLECULE
124037298
 60 64 0 0 0
SMALL
GASTEIGER

@<TRIPOS>ATOM
      1 O          -0.3504   -0.3556    1.0465 O.3     1  UNL1       -0.4811
      2 O          -1.1943   -2.2304   -0.5634 O.3     1  UNL1       -0.3666
      3 O          -1.8248    2.0939    0.5398 O.3     1  UNL1       -0.4914
      4 O          -3.7216   -1.3510    0.2521 O.3     1  UNL1       -0.3752
      5 O          -6.8041    0.5175   -0.1998 O.3     1  UNL1       -0.3807
      6 N           4.8632   -0.1307    0.5109 N.3     1  UNL1       -0.3015
      7 C           2.0151   -0.6880    0.5710 C.3     1  UNL1        0.0480
      8 C           2.9440   -1.2420   -0.5201 C.3     1  UNL1        0.0064
      9 C           4.0678   -0.1777   -0.7399 C.3     1  UNL1        0.0213
     10 C           0.6565   -1.3952    0.7864 C.3     1  UNL1        0.1401
     11 C           2.8111   -0.5130    1.8794 C.3     1  UNL1       -0.0263
     12 C           1.4836    0.6298    0.1123 C.ar    1  UNL1        0.0116
     13 C           3.5069    1.2059   -1.2172 C.3     1  UNL1       -0.0110
     14 C           4.1001    0.3027    1.6857 C.3     1  UNL1       -0.0001
     15 C           0.2177   -2.3120   -0.3853 C.3     1  UNL1        0.1145
     16 C           2.1550    1.5612   -0.6592 C.ar    1  UNL1       -0.0383
     17 C           2.1787   -1.6142   -1.7643 C.2     1  UNL1       -0.0799
     18 C           0.1612    0.7739    0.4670 C.ar    1  UNL1        0.1666
     19 C           0.9245   -2.0848   -1.6952 C.2     1  UNL1       -0.0557
     20 C           6.1091    0.6175    0.3791 C.3     1  UNL1       -0.0124
     21 C           1.4748    2.7399   -0.9696 C.ar    1  UNL1       -0.0546
     22 C          -0.5279    1.9315    0.1797 C.ar    1  UNL1        0.1618
     23 C           0.1481    2.9297   -0.5337 C.ar    1  UNL1       -0.0160
     24 C          -1.8884   -2.8709    0.4970 C.3     1  UNL1        0.0719
     25 C          -3.3808   -2.7320    0.2666 C.3     1  UNL1        0.0711
     26 C          -2.4496    3.3324    0.1949 C.3     1  UNL1        0.0790
     27 C          -5.1133   -1.1604    0.0391 C.3     1  UNL1        0.0711
     28 C          -5.4142    0.3260    0.0338 C.3     1  UNL1        0.0706
     29 C          -7.1480    1.8959   -0.1934 C.3     1  UNL1        0.0365
     30 H           3.4161   -2.1722   -0.1692 H       1  UNL1        0.0368
     31 H           4.7336   -0.5527   -1.5296 H       1  UNL1        0.0472
     32 H           0.6921   -2.0090    1.6960 H       1  UNL1        0.0772
     33 H           3.0795   -1.5065    2.2633 H       1  UNL1        0.0287
     34 H           2.2019   -0.0327    2.6559 H       1  UNL1        0.0287
     35 H           3.3997    1.1550   -2.3093 H       1  UNL1        0.0329
     36 H           4.2126    2.0178   -1.0160 H       1  UNL1        0.0329
     37 H           3.8585    1.3711    1.6244 H       1  UNL1        0.0427
     38 H           4.7122    0.1783    2.5879 H       1  UNL1        0.0427
     39 H           0.4736   -3.3486   -0.1201 H       1  UNL1        0.0678
     40 H           2.6705   -1.5382   -2.7290 H       1  UNL1        0.0573
     41 H           0.4225   -2.3858   -2.6103 H       1  UNL1        0.0596
     42 H           5.9508    1.6958    0.2786 H       1  UNL1        0.0391
     43 H           6.7421    0.4539    1.2587 H       1  UNL1        0.0391
     44 H           6.6845    0.2689   -0.4853 H       1  UNL1        0.0391
     45 H           1.9540    3.5077   -1.5714 H       1  UNL1        0.0622
     46 H          -0.3118    3.8716   -0.8166 H       1  UNL1        0.0655
     47 H          -1.6248   -3.9345    0.5226 H       1  UNL1        0.0583
     48 H          -1.6390   -2.4224    1.4631 H       1  UNL1        0.0583
     49 H          -3.9314   -3.2442    1.0633 H       1  UNL1        0.0583
     50 H          -3.6484   -3.1729   -0.7007 H       1  UNL1        0.0583
     51 H          -3.4763    3.2930    0.5732 H       1  UNL1        0.0660
     52 H          -2.5111    3.4595   -0.8911 H       1  UNL1        0.0660
     53 H          -1.9570    4.1796    0.6836 H       1  UNL1        0.0660
     54 H          -5.6893   -1.6544    0.8309 H       1  UNL1        0.0583
     55 H          -5.4140   -1.6046   -0.9176 H       1  UNL1        0.0583
     56 H          -4.8283    0.8237   -0.7486 H       1  UNL1        0.0582
     57 H          -5.1266    0.7681    0.9956 H       1  UNL1        0.0582
     58 H          -8.2216    1.9841   -0.3803 H       1  UNL1        0.0524
     59 H          -6.6108    2.4290   -0.9838 H       1  UNL1        0.0524
     60 H          -6.9254    2.3422    0.7806 H       1  UNL1        0.0524
@<TRIPOS>BOND
     1     1    10    1
     2     1    18    1
     3     2    15    1
     4     2    24    1
     5     3    22    1
     6     3    26    1
     7     4    25    1
     8     4    27    1
     9     5    28    1
    10     5    29    1
    11     6     9    1
    12     6    14    1
    13     6    20    1
    14     7     8    1
    15     7    10    1
    16     7    11    1
    17     7    12    1
    18     8     9    1
    19     8    17    1
    20     8    30    1
    21     9    13    1
    22     9    31    1
    23    10    15    1
    24    10    32    1
    25    11    14    1
    26    11    33    1
    27    11    34    1
    28    12    16   ar
    29    12    18   ar
    30    13    16    1
    31    13    35    1
    32    13    36    1
    33    14    37    1
    34    14    38    1
    35    15    19    1
    36    15    39    1
    37    16    21   ar
    38    17    19    2
    39    17    40    1
    40    18    22   ar
    41    19    41    1
    42    20    42    1
    43    20    43    1
    44    20    44    1
    45    21    23   ar
    46    21    45    1
    47    22    23   ar
    48    23    46    1
    49    24    25    1
    50    24    47    1
    51    24    48    1
    52    25    49    1
    53    25    50    1
    54    26    51    1
    55    26    52    1
    56    26    53    1
    57    27    28    1
    58    27    54    1
    59    27    55    1
    60    28    56    1
    61    28    57    1
    62    29    58    1
    63    29    59    1
    64    29    60    1
@<TRIPOS>MOLECULE
129827288
 46 49 0 0 0
SMALL
GASTEIGER

@<TRIPOS>ATOM
      1 O           1.4094   -1.0794   -0.4936 O.3     1  UNL1       -0.4819
      2 O           3.5811    0.4987   -0.6879 O.3     1  UNL1       -0.2659
      3 O           0.2857   -3.3882    0.6613 O.3     1  UNL1       -0.4915
      4 N          -2.5372    1.5020    0.9924 N.3     1  UNL1       -0.3015
      5 N           5.1085    0.1471    1.2487 N.1     1  UNL1       -0.1635
      6 C           0.0618    0.7874    0.7281 C.3     1  UNL1        0.0077
      7 C          -0.4021    1.9407   -0.2130 C.3     1  UNL1       -0.0006
      8 C          -1.9599    1.8322   -0.3570 C.3     1  UNL1        0.0207
      9 C           1.4327    0.1271    0.3891 C.3     1  UNL1        0.1347
     10 C          -0.2420    1.2917    2.1397 C.3     1  UNL1       -0.0333
     11 C          -1.6803    1.9136    2.1426 C.3     1  UNL1       -0.0007
     12 C           2.3823    1.1465   -0.2706 C.3     1  UNL1        0.1324
     13 C          -2.4804    0.8443   -1.4866 C.3     1  UNL1       -0.0113
     14 C           0.4478    2.1922   -1.4242 C.2     1  UNL1       -0.0804
     15 C           1.7463    1.8522   -1.4368 C.2     1  UNL1       -0.0543
     16 C          -3.8875    2.0428    1.1464 C.3     1  UNL1       -0.0125
     17 C          -1.9299   -0.5680   -1.3862 C.ar    1  UNL1       -0.0422
     18 C           0.1584   -1.5306   -0.8493 C.ar    1  UNL1        0.1627
     19 C          -0.5883   -0.7456   -1.7149 C.ar    1  UNL1       -0.0130
     20 C          -2.5858   -1.5634   -0.6511 C.ar    1  UNL1       -0.0548
     21 C          -0.4472   -2.5494   -0.1170 C.ar    1  UNL1        0.1615
     22 C          -1.8423   -2.6059   -0.0851 C.ar    1  UNL1       -0.0160
     23 C           4.3927    0.3136    0.3506 C.1     1  UNL1        0.2283
     24 C          -0.4238   -4.4016    1.3744 C.3     1  UNL1        0.0790
     25 H          -0.6525   -0.0275    0.7057 H       1  UNL1        0.0344
     26 H          -0.2420    2.8902    0.3272 H       1  UNL1        0.0362
     27 H          -2.3075    2.8350   -0.6465 H       1  UNL1        0.0471
     28 H           1.8755   -0.2475    1.3198 H       1  UNL1        0.0766
     29 H           0.4916    2.0382    2.4641 H       1  UNL1        0.0282
     30 H          -0.1990    0.4549    2.8472 H       1  UNL1        0.0282
     31 H          -2.1617    1.6178    3.0832 H       1  UNL1        0.0427
     32 H          -1.5969    3.0084    2.1697 H       1  UNL1        0.0427
     33 H           2.6304    1.9374    0.4551 H       1  UNL1        0.0693
     34 H          -2.2054    1.2563   -2.4666 H       1  UNL1        0.0329
     35 H          -3.5761    0.8080   -1.4859 H       1  UNL1        0.0329
     36 H           0.0240    2.7359   -2.2624 H       1  UNL1        0.0573
     37 H           2.3594    2.1141   -2.2937 H       1  UNL1        0.0596
     38 H          -4.5551    1.6778    0.3600 H       1  UNL1        0.0391
     39 H          -3.8940    3.1384    1.1240 H       1  UNL1        0.0391
     40 H          -4.3251    1.7169    2.0966 H       1  UNL1        0.0391
     41 H          -0.0876   -0.0260   -2.3493 H       1  UNL1        0.0658
     42 H          -3.6453   -1.4784   -0.4258 H       1  UNL1        0.0621
     43 H          -2.4028   -3.3413    0.4819 H       1  UNL1        0.0655
     44 H          -0.9727   -5.0636    0.6960 H       1  UNL1        0.0660
     45 H          -1.0709   -3.9687    2.1446 H       1  UNL1        0.0660
     46 H           0.3214   -5.0162    1.8899 H       1  UNL1        0.0660
@<TRIPOS>BOND
     1     1     9    1
     2     1    18    1
     3     2    12    1
     4     2    23    1
     5     3    21    1
     6     3    24    1
     7     4     8    1
     8     4    11    1
     9     4    16    1
    10     5    23    3
    11     6     7    1
    12     6     9    1
    13     6    10    1
    14     6    25    1
    15     7     8    1
    16     7    14    1
    17     7    26    1
    18     8    13    1
    19     8    27    1
    20     9    12    1
    21     9    28    1
    22    10    11    1
    23    10    29    1
    24    10    30    1
    25    11    31    1
    26    11    32    1
    27    12    15    1
    28    12    33    1
    29    13    17    1
    30    13    34    1
    31    13    35    1
    32    14    15    2
    33    14    36    1
    34    15    37    1
    35    16    38    1
    36    16    39    1
    37    16    40    1
    38    17    19   ar
    39    17    20   ar
    40    18    19   ar
    41    18    21   ar
    42    19    41    1
    43    20    22   ar
    44    20    42    1
    45    21    22   ar
    46    22    43    1
    47    24    44    1
    48    24    45    1
    49    24    46    1
@<TRIPOS>MOLECULE
133562480
 50 55 0 0 0
SMALL
GASTEIGER

@<TRIPOS>ATOM
      1 BR          4.4990    0.4617   -1.4938 Br      1  UNL1       -0.0499
      2 O          -0.8535    1.5835    1.0101 O.3     1  UNL1       -0.4786
      3 O          -3.3977   -0.8030   -0.1991 O.3     1  UNL1       -0.3432
      4 O          -3.2302    1.5321   -0.3371 O.3     1  UNL1       -0.3432
      5 O           1.0463    3.7429    0.6706 O.3     1  UNL1       -0.4914
      6 N           0.9635   -3.3594    0.5837 N.3     1  UNL1       -0.3018
      7 C          -0.3677   -0.7783    0.6199 C.3     1  UNL1        0.0470
      8 C          -0.5246   -1.7726   -0.5376 C.3     1  UNL1       -0.0116
      9 C          -1.4841    0.2733    0.8125 C.3     1  UNL1        0.1638
     10 C           0.8249   -2.5554   -0.6537 C.3     1  UNL1        0.0179
     11 C          -0.0726   -1.5416    1.9282 C.3     1  UNL1       -0.0265
     12 C          -2.4837    0.3031   -0.3619 C.3     1  UNL1        0.2084
     13 C           0.7528    0.1350    0.2724 C.ar    1  UNL1        0.0124
     14 C          -0.9707   -1.1241   -1.8678 C.3     1  UNL1       -0.0429
     15 C          -1.7912    0.1652   -1.7186 C.3     1  UNL1        0.0055
     16 C           2.0456   -1.6116   -0.9490 C.3     1  UNL1       -0.0103
     17 C           1.0802   -2.5476    1.7979 C.3     1  UNL1       -0.0002
     18 C           1.9132   -0.2155   -0.3957 C.ar    1  UNL1       -0.0244
     19 C           0.4367    1.4385    0.5781 C.ar    1  UNL1        0.1667
     20 C           2.0207   -4.3625    0.5079 C.3     1  UNL1       -0.0125
     21 C           2.8461    0.7971   -0.6250 C.ar    1  UNL1        0.0251
     22 C           1.3421    2.4546    0.3620 C.ar    1  UNL1        0.1629
     23 C          -4.6964   -0.2326   -0.3465 C.3     1  UNL1        0.0745
     24 C          -4.5167    1.1702    0.1602 C.3     1  UNL1        0.0745
     25 C           2.5681    2.1201   -0.2277 C.ar    1  UNL1       -0.0021
     26 C           2.0501    4.7270    0.4101 C.3     1  UNL1        0.0790
     27 H          -1.3149   -2.4903   -0.2694 H       1  UNL1        0.0326
     28 H          -2.0444    0.0730    1.7354 H       1  UNL1        0.0797
     29 H           0.7311   -3.2591   -1.4918 H       1  UNL1        0.0469
     30 H          -0.9777   -2.0890    2.2254 H       1  UNL1        0.0287
     31 H           0.1556   -0.8477    2.7477 H       1  UNL1        0.0287
     32 H          -1.5712   -1.8637   -2.4141 H       1  UNL1        0.0270
     33 H          -0.1184   -0.9145   -2.5239 H       1  UNL1        0.0270
     34 H          -1.1471    1.0363   -1.8931 H       1  UNL1        0.0318
     35 H          -2.5355    0.1996   -2.5248 H       1  UNL1        0.0318
     36 H           2.1233   -1.5279   -2.0414 H       1  UNL1        0.0329
     37 H           2.9818   -2.0610   -0.6048 H       1  UNL1        0.0329
     38 H           2.0417   -2.0206    1.8314 H       1  UNL1        0.0427
     39 H           1.0567   -3.1988    2.6807 H       1  UNL1        0.0427
     40 H           1.9102   -4.9786   -0.3911 H       1  UNL1        0.0391
     41 H           1.9530   -5.0464    1.3616 H       1  UNL1        0.0391
     42 H           3.0252   -3.9280    0.5088 H       1  UNL1        0.0391
     43 H          -4.9562   -0.2477   -1.4104 H       1  UNL1        0.0584
     44 H          -5.4374   -0.8062    0.2154 H       1  UNL1        0.0584
     45 H          -4.4824    1.2041    1.2545 H       1  UNL1        0.0584
     46 H          -5.2806    1.8634   -0.2000 H       1  UNL1        0.0584
     47 H           3.3305    2.8665   -0.4314 H       1  UNL1        0.0666
     48 H           2.2617    4.8075   -0.6614 H       1  UNL1        0.0660
     49 H           2.9552    4.5409    0.9980 H       1  UNL1        0.0660
     50 H           1.6481    5.6927    0.7331 H       1  UNL1        0.0660
@<TRIPOS>BOND
     1     1    21    1
     2     2     9    1
     3     2    19    1
     4     3    12    1
     5     3    23    1
     6     4    12    1
     7     4    24    1
     8     5    22    1
     9     5    26    1
    10     6    10    1
    11     6    17    1
    12     6    20    1
    13     7     8    1
    14     7     9    1
    15     7    11    1
    16     7    13    1
    17     8    10    1
    18     8    14    1
    19     8    27    1
    20     9    12    1
    21     9    28    1
    22    10    16    1
    23    10    29    1
    24    11    17    1
    25    11    30    1
    26    11    31    1
    27    12    15    1
    28    13    18   ar
    29    13    19   ar
    30    14    15    1
    31    14    32    1
    32    14    33    1
    33    15    34    1
    34    15    35    1
    35    16    18    1
    36    16    36    1
    37    16    37    1
    38    17    38    1
    39    17    39    1
    40    18    21   ar
    41    19    22   ar
    42    20    40    1
    43    20    41    1
    44    20    42    1
    45    21    25   ar
    46    22    25   ar
    47    23    24    1
    48    23    43    1
    49    23    44    1
    50    24    45    1
    51    24    46    1
    52    25    47    1
    53    26    48    1
    54    26    49    1
    55    26    50    1
@<TRIPOS>MOLECULE
163285659
 44 48 0 0 0
SMALL
GASTEIGER

@<TRIPOS>ATOM
      1 O           1.7275    1.0324    1.2242 O.3     1  UNL1       -0.4811
      2 O          -4.0964    0.2017    0.6746 O.co2   1  UNL1       -0.7753
      3 O           2.0284    3.1994   -0.2235 O.3     1  UNL1       -0.3841
      4 O           3.9055   -0.7915    0.6211 O.3     1  UNL1       -0.4914
      5 N          -3.1697   -0.7717    0.3433 N.3     1  UNL1        0.2178
      6 C          -0.6028    0.6783    0.6121 C.3     1  UNL1        0.0553
      7 C          -1.6140    1.0318   -0.4884 C.3     1  UNL1        0.0338
      8 C          -2.3379   -0.2988   -0.8731 C.3     1  UNL1       -0.0105
      9 C           0.4636    1.7408    0.9720 C.3     1  UNL1        0.1402
     10 C          -1.3452    0.1458    1.8559 C.3     1  UNL1        0.0014
     11 C           0.3279   -0.3614    0.0819 C.ar    1  UNL1        0.0120
     12 C          -2.2783   -1.0269    1.5419 C.3     1  UNL1       -0.0317
     13 C          -1.3577   -1.3753   -1.4427 C.3     1  UNL1        0.0164
     14 C           0.0107   -1.3650   -0.8150 C.ar    1  UNL1       -0.0345
     15 C           0.6528    2.8524   -0.0936 C.3     1  UNL1        0.1110
     16 C          -0.9584    1.7413   -1.6448 C.2     1  UNL1       -0.0761
     17 C           1.6142   -0.1344    0.5173 C.ar    1  UNL1        0.1666
     18 C           0.0899    2.5568   -1.4582 C.2     1  UNL1       -0.0558
     19 C          -3.9627   -2.0110    0.0311 C.3     1  UNL1       -0.0436
     20 C           1.0340   -2.2435   -1.1756 C.ar    1  UNL1       -0.0544
     21 C           2.6384   -0.9927    0.1829 C.ar    1  UNL1        0.1618
     22 C           2.3344   -2.0684   -0.6612 C.ar    1  UNL1       -0.0160
     23 C           4.8960   -1.7397    0.2178 C.3     1  UNL1        0.0790
     24 H          -2.3529    1.7391   -0.0879 H       1  UNL1        0.0408
     25 H          -3.1035   -0.0923   -1.6337 H       1  UNL1        0.0859
     26 H           0.2097    2.2338    1.9194 H       1  UNL1        0.0772
     27 H          -1.9378    0.9634    2.2868 H       1  UNL1        0.0327
     28 H          -0.6395   -0.1687    2.6354 H       1  UNL1        0.0327
     29 H          -1.7153   -1.9420    1.3319 H       1  UNL1        0.0814
     30 H          -2.9474   -1.2235    2.3879 H       1  UNL1        0.0814
     31 H          -1.2166   -1.1549   -2.5094 H       1  UNL1        0.0368
     32 H          -1.7720   -2.3841   -1.3866 H       1  UNL1        0.0368
     33 H           0.1358    3.7517    0.2657 H       1  UNL1        0.0675
     34 H          -1.3735    1.6208   -2.6406 H       1  UNL1        0.0575
     35 H           0.5003    3.0848   -2.3145 H       1  UNL1        0.0596
     36 H          -4.6599   -2.1696    0.8597 H       1  UNL1        0.0777
     37 H          -3.2880   -2.8635   -0.0536 H       1  UNL1        0.0777
     38 H          -4.5094   -1.8314   -0.8981 H       1  UNL1        0.0777
     39 H           0.8415   -3.0519   -1.8760 H       1  UNL1        0.0622
     40 H           3.0739   -2.7920   -0.9900 H       1  UNL1        0.0655
     41 H           2.0903    3.9651   -0.8200 H       1  UNL1        0.2104
     42 H           5.8431   -1.4322    0.6727 H       1  UNL1        0.0660
     43 H           4.6673   -2.7425    0.5942 H       1  UNL1        0.0660
     44 H           5.0407   -1.7288   -0.8677 H       1  UNL1        0.0660
@<TRIPOS>UNITY_ATOM_ATTR
2 1
charge -1
5 1
charge 1
@<TRIPOS>BOND
     1     1     9    1
     2     1    17    1
     3     2     5    1
     4     3    15    1
     5     3    41    1
     6     4    21    1
     7     4    23    1
     8     5     8    1
     9     5    12    1
    10     5    19    1
    11     6     7    1
    12     6     9    1
    13     6    10    1
    14     6    11    1
    15     7     8    1
    16     7    16    1
    17     7    24    1
    18     8    13    1
    19     8    25    1
    20     9    15    1
    21     9    26    1
    22    10    12    1
    23    10    27    1
    24    10    28    1
    25    11    14   ar
    26    11    17   ar
    27    12    29    1
    28    12    30    1
    29    13    14    1
    30    13    31    1
    31    13    32    1
    32    14    20   ar
    33    15    18    1
    34    15    33    1
    35    16    18    2
    36    16    34    1
    37    17    21   ar
    38    18    35    1
    39    19    36    1
    40    19    37    1
    41    19    38    1
    42    20    22   ar
    43    20    39    1
    44    21    22   ar
    45    22    40    1
    46    23    42    1
    47    23    43    1
    48    23    44    1
@<TRIPOS>MOLECULE
5492830
 42 46 0 0 0
SMALL
GASTEIGER

@<TRIPOS>ATOM
      1 O           1.5334    1.3549    1.2037 O.3     1  UNL1       -0.4837
      2 O           3.8757   -0.2404    0.5133 O.3     1  UNL1       -0.4914
      3 N          -3.0886   -0.9486    0.5218 N.3     1  UNL1       -0.3015
      4 C          -0.7500    0.7678    0.6500 C.3     1  UNL1        0.0455
      5 C          -1.8858    0.9914   -0.3549 C.3     1  UNL1        0.0062
      6 C          -2.4551   -0.4201   -0.7111 C.3     1  UNL1        0.0213
      7 C           0.2090    1.9420    0.9273 C.3     1  UNL1        0.1141
      8 C          -1.3402    0.1491    1.9346 C.3     1  UNL1       -0.0264
      9 C           0.2603   -0.1622    0.0692 C.ar    1  UNL1        0.0115
     10 C          -1.3802   -1.3584   -1.3626 C.3     1  UNL1       -0.0110
     11 C          -2.1655   -1.1184    1.6491 C.3     1  UNL1       -0.0002
     12 C           0.0110   -1.1957   -0.8131 C.ar    1  UNL1       -0.0383
     13 C           0.3634    2.9577   -0.2310 C.3     1  UNL1        0.0033
     14 C          -1.4556    1.8132   -1.5376 C.2     1  UNL1       -0.0823
     15 C           1.5295    0.1894    0.4774 C.ar    1  UNL1        0.1664
     16 C          -0.4496    2.6952   -1.4667 C.2     1  UNL1       -0.0841
     17 C          -3.8823   -2.1523    0.2975 C.3     1  UNL1       -0.0124
     18 C           1.1062   -1.9624   -1.2121 C.ar    1  UNL1       -0.0546
     19 C           2.6228   -0.5610    0.1083 C.ar    1  UNL1        0.1618
     20 C           2.3993   -1.6563   -0.7376 C.ar    1  UNL1       -0.0160
     21 C           4.9422   -1.0849    0.0743 C.3     1  UNL1        0.0790
     22 H          -2.6892    1.5733    0.1226 H       1  UNL1        0.0368
     23 H          -3.2580   -0.2817   -1.4484 H       1  UNL1        0.0472
     24 H          -0.0867    2.4856    1.8331 H       1  UNL1        0.0745
     25 H          -1.9892    0.8915    2.4185 H       1  UNL1        0.0287
     26 H          -0.5547   -0.0967    2.6608 H       1  UNL1        0.0287
     27 H          -1.3336   -1.1111   -2.4318 H       1  UNL1        0.0329
     28 H          -1.6793   -2.4095   -1.3032 H       1  UNL1        0.0329
     29 H          -1.4924   -1.9676    1.4779 H       1  UNL1        0.0427
     30 H          -2.7349   -1.3569    2.5563 H       1  UNL1        0.0427
     31 H           1.4177    3.0340   -0.5252 H       1  UNL1        0.0343
     32 H           0.0804    3.9515    0.1389 H       1  UNL1        0.0343
     33 H          -2.0174    1.7236   -2.4627 H       1  UNL1        0.0573
     34 H          -0.2127    3.2876   -2.3465 H       1  UNL1        0.0570
     35 H          -3.2690   -3.0322    0.0792 H       1  UNL1        0.0391
     36 H          -4.5882   -2.0071   -0.5275 H       1  UNL1        0.0391
     37 H          -4.4850   -2.3777    1.1847 H       1  UNL1        0.0391
     38 H           0.9740   -2.7887   -1.9056 H       1  UNL1        0.0622
     39 H           3.1969   -2.3014   -1.0937 H       1  UNL1        0.0655
     40 H           5.0544   -1.0527   -1.0146 H       1  UNL1        0.0660
     41 H           4.8225   -2.1077    0.4472 H       1  UNL1        0.0660
     42 H           5.8673   -0.6896    0.5062 H       1  UNL1        0.0660
@<TRIPOS>BOND
     1     1     7    1
     2     1    15    1
     3     2    19    1
     4     2    21    1
     5     3     6    1
     6     3    11    1
     7     3    17    1
     8     4     5    1
     9     4     7    1
    10     4     8    1
    11     4     9    1
    12     5     6    1
    13     5    14    1
    14     5    22    1
    15     6    10    1
    16     6    23    1
    17     7    13    1
    18     7    24    1
    19     8    11    1
    20     8    25    1
    21     8    26    1
    22     9    12   ar
    23     9    15   ar
    24    10    12    1
    25    10    27    1
    26    10    28    1
    27    11    29    1
    28    11    30    1
    29    12    18   ar
    30    13    16    1
    31    13    31    1
    32    13    32    1
    33    14    16    2
    34    14    33    1
    35    15    19   ar
    36    16    34    1
    37    17    35    1
    38    17    36    1
    39    17    37    1
    40    18    20   ar
    41    18    38    1
    42    19    20   ar
    43    20    39    1
    44    21    40    1
    45    21    41    1
    46    21    42    1
@<TRIPOS>MOLECULE
71314974
 43 47 0 0 0
SMALL
GASTEIGER

@<TRIPOS>ATOM
      1 O          -1.5236    1.1416   -1.2212 O.3     1  UNL1       -0.4811
      2 O          -1.7864    3.1270    0.4993 O.3     1  UNL1       -0.3841
      3 O          -3.8054   -0.5772   -0.7221 O.3     1  UNL1       -0.4914
      4 N           3.5862   -0.5814   -0.1935 N.3     1  UNL1       -0.3015
      5 C           0.7881    0.6689   -0.6411 C.3     1  UNL1        0.0480
      6 C           1.7301    0.7657    0.5409 C.3     1  UNL1        0.0064
      7 C           2.3007   -0.7040    0.4821 C.3     1  UNL1        0.0213
      8 C          -0.2505    1.7835   -0.8615 C.3     1  UNL1        0.1399
      9 C           1.7069    0.3444   -1.8916 C.3     1  UNL1       -0.0263
     10 C          -0.2051   -0.4232   -0.2100 C.ar    1  UNL1        0.0116
     11 C           1.4441   -1.6737    1.3068 C.3     1  UNL1       -0.0110
     12 C           3.2688    0.0538   -1.5427 C.3     1  UNL1       -0.0001
     13 C           0.0307   -1.4967    0.6934 C.ar    1  UNL1       -0.0383
     14 C          -0.4275    2.7198    0.3683 C.3     1  UNL1        0.1110
     15 C           1.0589    1.2896    1.7829 C.2     1  UNL1       -0.0799
     16 C          -1.4730   -0.0871   -0.6193 C.ar    1  UNL1        0.1666
     17 C           0.0575    2.1797    1.6907 C.2     1  UNL1       -0.0559
     18 C           4.2881   -1.8514   -0.3334 C.3     1  UNL1       -0.0124
     19 C          -1.0520   -2.3068    1.0254 C.ar    1  UNL1       -0.0546
     20 C          -2.5512   -0.8891   -0.3083 C.ar    1  UNL1        0.1618
     21 C          -2.3286   -2.0135    0.5047 C.ar    1  UNL1       -0.0160
     22 C          -4.8569   -1.4700   -0.3498 C.3     1  UNL1        0.0790
     23 H           2.5231    1.5053    0.3522 H       1  UNL1        0.0368
     24 H           1.9435   -1.2562   -0.4032 H       1  UNL1        0.0472
     25 H           0.0146    2.4108   -1.7209 H       1  UNL1        0.0772
     26 H           1.6997    1.1882   -2.5915 H       1  UNL1        0.0287
     27 H           1.3057   -0.5233   -2.4312 H       1  UNL1        0.0287
     28 H           1.4493   -1.4336    2.3735 H       1  UNL1        0.0329
     29 H           1.7730   -2.7112    1.1755 H       1  UNL1        0.0329
     30 H           3.6930   -0.5348   -2.3658 H       1  UNL1        0.0427
     31 H           3.7908    1.0190   -1.5579 H       1  UNL1        0.0427
     32 H           0.1551    3.6307    0.1776 H       1  UNL1        0.0675
     33 H           1.4302    0.9884    2.7567 H       1  UNL1        0.0573
     34 H          -0.3698    2.5830    2.6045 H       1  UNL1        0.0596
     35 H          -0.9251   -3.1515    1.6963 H       1  UNL1        0.0622
     36 H           4.4903   -2.2846    0.6521 H       1  UNL1        0.0391
     37 H           5.2580   -1.6956   -0.8177 H       1  UNL1        0.0391
     38 H           3.7240   -2.5832   -0.9228 H       1  UNL1        0.0391
     39 H          -3.1227   -2.6895    0.8077 H       1  UNL1        0.0655
     40 H          -1.8352    3.7868    1.2123 H       1  UNL1        0.2104
     41 H          -5.7819   -1.0807   -0.7874 H       1  UNL1        0.0660
     42 H          -4.9984   -1.4903    0.7360 H       1  UNL1        0.0660
     43 H          -4.7003   -2.4709   -0.7661 H       1  UNL1        0.0660
@<TRIPOS>BOND
     1     1     8    1
     2     1    16    1
     3     2    14    1
     4     2    40    1
     5     3    20    1
     6     3    22    1
     7     4     7    1
     8     4    12    1
     9     4    18    1
    10     5     6    1
    11     5     8    1
    12     5     9    1
    13     5    10    1
    14     6     7    1
    15     6    15    1
    16     6    23    1
    17     7    11    1
    18     7    24    1
    19     8    14    1
    20     8    25    1
    21     9    12    1
    22     9    26    1
    23     9    27    1
    24    10    13   ar
    25    10    16   ar
    26    11    13    1
    27    11    28    1
    28    11    29    1
    29    12    30    1
    30    12    31    1
    31    13    19   ar
    32    14    17    1
    33    14    32    1
    34    15    17    2
    35    15    33    1
    36    16    20   ar
    37    17    34    1
    38    18    36    1
    39    18    37    1
    40    18    38    1
    41    19    21   ar
    42    19    35    1
    43    20    21   ar
    44    21    39    1
    45    22    41    1
    46    22    42    1
    47    22    43    1
@<TRIPOS>MOLECULE
5357395
 43 47 0 0 0
SMALL
GASTEIGER

@<TRIPOS>ATOM
      1 O          -1.5986    1.0601    1.1423 O.3     1  UNL1       -0.4763
      2 O          -1.4136    3.7374    0.0009 O.2     1  UNL1       -0.5076
      3 O          -3.7850   -0.7550    0.4933 O.3     1  UNL1       -0.4914
      4 N           3.2642   -0.7774    0.4992 N.3     1  UNL1       -0.3018
      5 C           0.7359    0.6417    0.6248 C.3     1  UNL1        0.0492
      6 C           1.8081    0.9536   -0.4248 C.3     1  UNL1       -0.0079
      7 C           2.5413   -0.3900   -0.7362 C.3     1  UNL1        0.0181
      8 C          -0.3131    1.7367    0.9088 C.3     1  UNL1        0.1662
      9 C           1.4161    0.1260    1.9107 C.3     1  UNL1       -0.0262
     10 C          -0.1847   -0.3921    0.0835 C.ar    1  UNL1        0.0116
     11 C           1.5696   -1.4918   -1.2970 C.3     1  UNL1       -0.0113
     12 C           1.2477    1.6577   -1.6751 C.3     1  UNL1       -0.0260
     13 C           2.3862   -1.0370    1.6446 C.3     1  UNL1       -0.0002
     14 C           0.1637   -1.4326   -0.7568 C.ar    1  UNL1       -0.0383
     15 C          -1.4832   -0.1297    0.4654 C.ar    1  UNL1        0.1671
     16 C          -0.4787    2.7419   -0.2085 C.2     1  UNL1        0.1314
     17 C           0.2175    2.7020   -1.3543 C.2     1  UNL1       -0.0426
     18 C           4.2154   -1.8654    0.2981 C.3     1  UNL1       -0.0125
     19 C          -0.8571   -2.3065   -1.1313 C.ar    1  UNL1       -0.0546
     20 C          -2.5039   -0.9844    0.1153 C.ar    1  UNL1        0.1618
     21 C          -2.1774   -2.0917   -0.6810 C.ar    1  UNL1       -0.0160
     22 C          -4.7704   -1.7035    0.0779 C.3     1  UNL1        0.0790
     23 H           2.5320    1.6553    0.0188 H       1  UNL1        0.0329
     24 H           3.2974   -0.1870   -1.5064 H       1  UNL1        0.0469
     25 H          -0.0632    2.2854    1.8255 H       1  UNL1        0.0824
     26 H           0.6749   -0.1941    2.6544 H       1  UNL1        0.0287
     27 H           1.9781    0.9522    2.3672 H       1  UNL1        0.0287
     28 H           1.9753   -2.4973   -1.1480 H       1  UNL1        0.0329
     29 H           1.5040   -1.3471   -2.3836 H       1  UNL1        0.0329
     30 H           0.8046    0.9501   -2.3840 H       1  UNL1        0.0312
     31 H           2.0821    2.1358   -2.2032 H       1  UNL1        0.0312
     32 H           2.9926   -1.1788    2.5479 H       1  UNL1        0.0427
     33 H           1.8223   -1.9675    1.5048 H       1  UNL1        0.0427
     34 H           0.0308    3.4445   -2.1260 H       1  UNL1        0.0606
     35 H           4.8839   -1.6492   -0.5424 H       1  UNL1        0.0391
     36 H           3.7299   -2.8292    0.1163 H       1  UNL1        0.0391
     37 H           4.8547   -1.9755    1.1814 H       1  UNL1        0.0391
     38 H          -0.6476   -3.1452   -1.7900 H       1  UNL1        0.0622
     39 H          -2.9131   -2.8162   -1.0171 H       1  UNL1        0.0655
     40 H          -1.4309    4.3168   -0.7801 H       1  UNL1        0.2918
     41 H          -5.7317   -1.3702    0.4822 H       1  UNL1        0.0660
     42 H          -4.5712   -2.6965    0.4948 H       1  UNL1        0.0660
     43 H          -4.8688   -1.7253   -1.0126 H       1  UNL1        0.0660
@<TRIPOS>BOND
     1     1     8    1
     2     1    15    1
     3     2    16    1
     4     2    40    1
     5     3    20    1
     6     3    22    1
     7     4     7    1
     8     4    13    1
     9     4    18    1
    10     5     6    1
    11     5     8    1
    12     5     9    1
    13     5    10    1
    14     6     7    1
    15     6    12    1
    16     6    23    1
    17     7    11    1
    18     7    24    1
    19     8    16    1
    20     8    25    1
    21     9    13    1
    22     9    26    1
    23     9    27    1
    24    10    14   ar
    25    10    15   ar
    26    11    14    1
    27    11    28    1
    28    11    29    1
    29    12    17    1
    30    12    30    1
    31    12    31    1
    32    13    32    1
    33    13    33    1
    34    14    19   ar
    35    15    20   ar
    36    16    17    2
    37    17    34    1
    38    18    35    1
    39    18    36    1
    40    18    37    1
    41    19    21   ar
    42    19    38    1
    43    20    21   ar
    44    21    39    1
    45    22    41    1
    46    22    42    1
    47    22    43    1
@<TRIPOS>MOLECULE
16219112
 43 47 0 0 0
SMALL
GASTEIGER

@<TRIPOS>ATOM
      1 O          -1.5926   -1.0371    1.1890 O.3     1  UNL1       -0.4811
      2 O          -1.8298   -3.2224   -0.2208 O.3     1  UNL1       -0.3841
      3 O          -3.7490    0.7880    0.5181 O.3     1  UNL1       -0.4914
      4 N           3.2987    0.7132    0.4612 N.3     1  UNL1       -0.3015
      5 C           0.7585   -0.6767    0.6654 C.3     1  UNL1        0.0480
      6 C           1.8071   -1.0215   -0.4031 C.3     1  UNL1        0.0064
      7 C           2.5499    0.3087   -0.7532 C.3     1  UNL1        0.0213
      8 C          -0.3170   -1.7404    0.9876 C.3     1  UNL1        0.1399
      9 C           1.4691   -0.1453    1.9259 C.3     1  UNL1       -0.0263
     10 C          -0.1533    0.3674    0.1106 C.ar    1  UNL1        0.0116
     11 C           1.5897    1.4045   -1.3316 C.3     1  UNL1       -0.0110
     12 C           2.4454    1.0021    1.6181 C.3     1  UNL1       -0.0001
     13 C           0.1967    1.3820   -0.7621 C.ar    1  UNL1       -0.0383
     14 C          -0.4599   -2.8532   -0.0835 C.3     1  UNL1        0.1110
     15 C           1.1865   -1.7246   -1.5833 C.2     1  UNL1       -0.0799
     16 C          -1.4545    0.1347    0.4954 C.ar    1  UNL1        0.1666
     17 C           0.1370   -2.5460   -1.4311 C.2     1  UNL1       -0.0559
     18 C           4.2548    1.7894    0.2223 C.3     1  UNL1       -0.0124
     19 C          -0.8133    2.2630   -1.1520 C.ar    1  UNL1       -0.0546
     20 C          -2.4665    0.9951    0.1305 C.ar    1  UNL1        0.1618
     21 C          -2.1323    2.0799   -0.6902 C.ar    1  UNL1       -0.0160
     22 C          -4.7250    1.7390    0.0868 C.3     1  UNL1        0.0790
     23 H           2.5431   -1.7265    0.0124 H       1  UNL1        0.0368
     24 H           3.2945    0.0818   -1.5287 H       1  UNL1        0.0472
     25 H          -0.0990   -2.2308    1.9452 H       1  UNL1        0.0772
     26 H           2.0307   -0.9692    2.3866 H       1  UNL1        0.0287
     27 H           0.7460    0.1975    2.6771 H       1  UNL1        0.0287
     28 H           1.4978    1.2208   -2.4108 H       1  UNL1        0.0329
     29 H           2.0137    2.4078   -1.2265 H       1  UNL1        0.0329
     30 H           1.8878    1.9355    1.4712 H       1  UNL1        0.0427
     31 H           3.0705    1.1553    2.5068 H       1  UNL1        0.0427
     32 H           0.0654   -3.7430    0.2877 H       1  UNL1        0.0675
     33 H           1.6269   -1.5938   -2.5668 H       1  UNL1        0.0573
     34 H          -0.2502   -3.0691   -2.3009 H       1  UNL1        0.0596
     35 H           4.9052    1.5529   -0.6269 H       1  UNL1        0.0391
     36 H           4.9119    1.9101    1.0911 H       1  UNL1        0.0391
     37 H           3.7733    2.7539    0.0327 H       1  UNL1        0.0391
     38 H          -0.5953    3.0800   -1.8348 H       1  UNL1        0.0622
     39 H          -2.8599    2.8061   -1.0394 H       1  UNL1        0.0655
     40 H          -1.8782   -3.9681   -0.8434 H       1  UNL1        0.2104
     41 H          -5.6882    1.4255    0.5021 H       1  UNL1        0.0660
     42 H          -4.8280    1.7389   -1.0034 H       1  UNL1        0.0660
     43 H          -4.5125    2.7381    0.4819 H       1  UNL1        0.0660
@<TRIPOS>BOND
     1     1     8    1
     2     1    16    1
     3     2    14    1
     4     2    40    1
     5     3    20    1
     6     3    22    1
     7     4     7    1
     8     4    12    1
     9     4    18    1
    10     5     6    1
    11     5     8    1
    12     5     9    1
    13     5    10    1
    14     6     7    1
    15     6    15    1
    16     6    23    1
    17     7    11    1
    18     7    24    1
    19     8    14    1
    20     8    25    1
    21     9    12    1
    22     9    26    1
    23     9    27    1
    24    10    13   ar
    25    10    16   ar
    26    11    13    1
    27    11    28    1
    28    11    29    1
    29    12    30    1
    30    12    31    1
    31    13    19   ar
    32    14    17    1
    33    14    32    1
    34    15    17    2
    35    15    33    1
    36    16    20   ar
    37    17    34    1
    38    18    35    1
    39    18    36    1
    40    18    37    1
    41    19    21   ar
    42    19    38    1
    43    20    21   ar
    44    21    39    1
    45    22    41    1
    46    22    42    1
    47    22    43    1
@<TRIPOS>MOLECULE
59888101
 46 50 0 0 0
SMALL
GASTEIGER

@<TRIPOS>ATOM
      1 O           2.5026   -0.5177   -1.2200 O.3     1  UNL1       -0.4811
      2 O           2.3455   -3.6797   -0.1690 O.3     1  UNL1       -0.3841
      3 O           4.1338    1.8015   -0.5203 O.3     1  UNL1       -0.4914
      4 O          -4.4945    0.0612    0.7224 O.3     1  UNL1       -0.4535
      5 O          -4.5938    1.0086   -1.3554 O.2     1  UNL1       -0.2263
      6 N          -2.5697    0.1848   -0.5470 N.am    1  UNL1       -0.2635
      7 C           0.1667   -0.7716   -0.6686 C.3     1  UNL1        0.0485
      8 C          -0.8527   -1.3891    0.2925 C.3     1  UNL1        0.0095
      9 C          -1.8432   -0.2539    0.6734 C.3     1  UNL1        0.0402
     10 C           1.4782   -1.5419   -0.9189 C.3     1  UNL1        0.1399
     11 C          -0.5689   -0.3975   -1.9731 C.3     1  UNL1       -0.0231
     12 C           0.7812    0.4467   -0.0716 C.ar    1  UNL1        0.0116
     13 C          -1.1702    0.9682    1.3752 C.3     1  UNL1       -0.0079
     14 C          -1.7725    0.5256   -1.7374 C.3     1  UNL1        0.0191
     15 C           0.1865    1.3148    0.8235 C.ar    1  UNL1       -0.0380
     16 C           1.9912   -2.3729    0.2885 C.3     1  UNL1        0.1110
     17 C          -0.2193   -2.0871    1.4601 C.2     1  UNL1       -0.0796
     18 C           2.0912    0.5704   -0.4864 C.ar    1  UNL1        0.1666
     19 C           1.0416   -2.5378    1.4391 C.2     1  UNL1       -0.0559
     20 C           0.9427    2.4141    1.2304 C.ar    1  UNL1       -0.0545
     21 C           2.8505    1.6546   -0.1106 C.ar    1  UNL1        0.1618
     22 C          -3.9425    0.4655   -0.4649 C.2     1  UNL1        0.4029
     23 C           2.2580    2.5906    0.7491 C.ar    1  UNL1       -0.0160
     24 C           5.1542    1.2369    0.3069 C.3     1  UNL1        0.0790
     25 C          -5.8966    0.3056    0.8822 C.3     1  UNL1        0.0833
     26 H          -1.4216   -2.1685   -0.2365 H       1  UNL1        0.0371
     27 H          -2.5575   -0.6720    1.3902 H       1  UNL1        0.0511
     28 H           1.3977   -2.1773   -1.8096 H       1  UNL1        0.0772
     29 H          -0.9288   -1.3214   -2.4459 H       1  UNL1        0.0290
     30 H           0.1030    0.0760   -2.7002 H       1  UNL1        0.0290
     31 H          -1.0340    0.7205    2.4358 H       1  UNL1        0.0331
     32 H          -1.8265    1.8448    1.3211 H       1  UNL1        0.0331
     33 H          -1.4381    1.5613   -1.6053 H       1  UNL1        0.0466
     34 H          -2.4246    0.5236   -2.6180 H       1  UNL1        0.0466
     35 H           2.9154   -1.9276    0.6774 H       1  UNL1        0.0675
     36 H          -0.8326   -2.2815    2.3355 H       1  UNL1        0.0573
     37 H           1.4162   -3.0597    2.3166 H       1  UNL1        0.0596
     38 H           0.5325    3.1329    1.9347 H       1  UNL1        0.0622
     39 H           2.8277    3.4555    1.0820 H       1  UNL1        0.0655
     40 H           2.7477   -4.1593    0.5756 H       1  UNL1        0.2104
     41 H           6.1218    1.4307   -0.1637 H       1  UNL1        0.0660
     42 H           5.0179    0.1547    0.3983 H       1  UNL1        0.0660
     43 H           5.1446    1.7034    1.2970 H       1  UNL1        0.0660
     44 H          -6.1955   -0.0656    1.8660 H       1  UNL1        0.0661
     45 H          -6.4640   -0.2320    0.1166 H       1  UNL1        0.0661
     46 H          -6.1012    1.3793    0.8348 H       1  UNL1        0.0661
@<TRIPOS>BOND
     1     1    10    1
     2     1    18    1
     3     2    16    1
     4     2    40    1
     5     3    21    1
     6     3    24    1
     7     4    22    1
     8     4    25    1
     9     5    22    2
    10     6     9    1
    11     6    14    1
    12     6    22   am
    13     7     8    1
    14     7    10    1
    15     7    11    1
    16     7    12    1
    17     8     9    1
    18     8    17    1
    19     8    26    1
    20     9    13    1
    21     9    27    1
    22    10    16    1
    23    10    28    1
    24    11    14    1
    25    11    29    1
    26    11    30    1
    27    12    15   ar
    28    12    18   ar
    29    13    15    1
    30    13    31    1
    31    13    32    1
    32    14    33    1
    33    14    34    1
    34    15    20   ar
    35    16    19    1
    36    16    35    1
    37    17    19    2
    38    17    36    1
    39    18    21   ar
    40    19    37    1
    41    20    23   ar
    42    20    38    1
    43    21    23   ar
    44    23    39    1
    45    24    41    1
    46    24    42    1
    47    24    43    1
    48    25    44    1
    49    25    45    1
    50    25    46    1
@<TRIPOS>MOLECULE
91747732
 55 59 0 0 0
SMALL
GASTEIGER

@<TRIPOS>ATOM
      1 SI         -4.3132   -0.9796   -0.1213 Si      1  UNL1        0.0000
      2 O          -0.8115    0.8938    1.3588 O.3     1  UNL1        0.0000
      3 O          -2.8048   -0.3164    0.1834 O.3     1  UNL1        0.0000
      4 O          -0.7575    3.6822    0.5508 O.3     1  UNL1        0.0000
      5 N           3.4868   -1.9416    0.3571 N.3     1  UNL1        0.0000
      6 C           0.8606   -0.7704    0.7534 C.3     1  UNL1        0.0000
      7 C           1.1314   -1.8593   -0.2960 C.3     1  UNL1        0.0000
      8 C          -0.6031   -0.5536    1.2038 C.3     1  UNL1        0.0000
      9 C           2.5985   -1.6516   -0.7944 C.3     1  UNL1        0.0000
     10 C           1.8295   -0.9508    1.9387 C.3     1  UNL1        0.0000
     11 C           1.0722    0.5624    0.1144 C.ar    1  UNL1        0.0000
     12 C           2.8192   -0.2502   -1.4610 C.3     1  UNL1        0.0000
     13 C           3.2996   -1.0373    1.4961 C.3     1  UNL1        0.0000
     14 C          -1.6643   -1.1686    0.2543 C.3     1  UNL1        0.0000
     15 C           2.0028    0.8643   -0.8636 C.ar    1  UNL1        0.0000
     16 C           0.0901   -1.8511   -1.3859 C.2     1  UNL1        0.0000
     17 C           0.1296    1.4674    0.5474 C.ar    1  UNL1        0.0000
     18 C          -1.1829   -1.5150   -1.1296 C.2     1  UNL1        0.0000
     19 C           2.0415    2.1829   -1.3201 C.ar    1  UNL1        0.0000
     20 C           4.8950   -2.0526   -0.0091 C.3     1  UNL1        0.0000
     21 C           0.1533    2.7761    0.1180 C.ar    1  UNL1        0.0000
     22 C           1.1342    3.1357   -0.8152 C.ar    1  UNL1        0.0000
     23 C          -4.8002   -2.2106    1.2151 C.3     1  UNL1        0.0000
     24 C          -4.3494   -1.8566   -1.7850 C.3     1  UNL1        0.0000
     25 C          -5.6110    0.3861   -0.1553 C.3     1  UNL1        0.0000
     26 C          -0.6465    5.0145    0.0453 C.3     1  UNL1        0.0000
     27 H           1.0659   -2.8526    0.1735 H       1  UNL1        0.0000
     28 H          -0.7663   -0.9791    2.2026 H       1  UNL1        0.0000
     29 H           2.8035   -2.4147   -1.5580 H       1  UNL1        0.0000
     30 H           1.5679   -1.8765    2.4689 H       1  UNL1        0.0000
     31 H           1.7264   -0.1351    2.6660 H       1  UNL1        0.0000
     32 H           2.5188   -0.3389   -2.5139 H       1  UNL1        0.0000
     33 H           3.8767    0.0312   -1.4667 H       1  UNL1        0.0000
     34 H           3.6786   -0.0337    1.2667 H       1  UNL1        0.0000
     35 H           3.8846   -1.3976    2.3516 H       1  UNL1        0.0000
     36 H          -1.9456   -2.1290    0.7125 H       1  UNL1        0.0000
     37 H           0.3781   -2.1399   -2.3921 H       1  UNL1        0.0000
     38 H          -1.8562   -1.5244   -1.9746 H       1  UNL1        0.0000
     39 H           2.7536    2.4774   -2.0865 H       1  UNL1        0.0000
     40 H           5.0279   -2.7503   -0.8431 H       1  UNL1        0.0000
     41 H           5.4719   -2.4591    0.8293 H       1  UNL1        0.0000
     42 H           5.3411   -1.0922   -0.2857 H       1  UNL1        0.0000
     43 H           1.2277    4.1383   -1.2212 H       1  UNL1        0.0000
     44 H          -5.8196   -2.5718    1.0496 H       1  UNL1        0.0000
     45 H          -4.1291   -3.0741    1.2154 H       1  UNL1        0.0000
     46 H          -4.7580   -1.7408    2.2021 H       1  UNL1        0.0000
     47 H          -3.7386   -2.7635   -1.7760 H       1  UNL1        0.0000
     48 H          -5.3756   -2.1598   -2.0168 H       1  UNL1        0.0000
     49 H          -4.0124   -1.1954   -2.5883 H       1  UNL1        0.0000
     50 H          -6.6030   -0.0305   -0.3529 H       1  UNL1        0.0000
     51 H          -5.6407    0.9093    0.8049 H       1  UNL1        0.0000
     52 H          -5.3793    1.1141   -0.9381 H       1  UNL1        0.0000
     53 H          -1.4431    5.6046    0.5098 H       1  UNL1        0.0000
     54 H          -0.8107    5.0458   -1.0371 H       1  UNL1        0.0000
     55 H           0.3053    5.4739    0.3325 H       1  UNL1        0.0000
@<TRIPOS>BOND
     1     1     3    1
     2     1    23    1
     3     1    24    1
     4     1    25    1
     5     2     8    1
     6     2    17    1
     7     3    14    1
     8     4    21    1
     9     4    26    1
    10     5     9    1
    11     5    13    1
    12     5    20    1
    13     6     7    1
    14     6     8    1
    15     6    10    1
    16     6    11    1
    17     7     9    1
    18     7    16    1
    19     7    27    1
    20     8    14    1
    21     8    28    1
    22     9    12    1
    23     9    29    1
    24    10    13    1
    25    10    30    1
    26    10    31    1
    27    11    15   ar
    28    11    17   ar
    29    12    15    1
    30    12    32    1
    31    12    33    1
    32    13    34    1
    33    13    35    1
    34    14    18    1
    35    14    36    1
    36    15    19   ar
    37    16    18    2
    38    16    37    1
    39    17    21   ar
    40    18    38    1
    41    19    22   ar
    42    19    39    1
    43    20    40    1
    44    20    41    1
    45    20    42    1
    46    21    22   ar
    47    22    43    1
    48    23    44    1
    49    23    45    1
    50    23    46    1
    51    24    47    1
    52    24    48    1
    53    24    49    1
    54    25    50    1
    55    25    51    1
    56    25    52    1
    57    26    53    1
    58    26    54    1
    59    26    55    1
@<TRIPOS>MOLECULE
124037288
 53 57 0 0 0
SMALL
GASTEIGER

@<TRIPOS>ATOM
      1 O          -1.1371   -0.0364    1.0180 O.3     1  UNL1       -0.4811
      2 O          -2.2739   -1.7617   -0.5789 O.3     1  UNL1       -0.3666
      3 O          -2.1509    2.6247    0.4505 O.3     1  UNL1       -0.4914
      4 O          -4.6189   -0.4386    0.1801 O.3     1  UNL1       -0.3807
      5 N           4.0421   -0.7386    0.5692 N.3     1  UNL1       -0.3015
      6 C           1.1398   -0.7867    0.5882 C.3     1  UNL1        0.0480
      7 C           1.9726   -1.5137   -0.4786 C.3     1  UNL1        0.0064
      8 C           3.2690   -0.6671   -0.6943 C.3     1  UNL1        0.0213
      9 C          -0.3248   -1.2408    0.7903 C.3     1  UNL1        0.1401
     10 C           1.9352   -0.7314    1.9074 C.3     1  UNL1       -0.0263
     11 C           0.8547    0.5958    0.1014 C.ar    1  UNL1        0.0116
     12 C           2.9668    0.7850   -1.2013 C.3     1  UNL1       -0.0110
     13 C           3.3502   -0.1579    1.7242 C.3     1  UNL1       -0.0001
     14 C          -0.9009   -2.0865   -0.3753 C.3     1  UNL1        0.1145
     15 C           1.6904    1.3815   -0.6718 C.ar    1  UNL1       -0.0383
     16 C           1.1718   -1.7674   -1.7303 C.2     1  UNL1       -0.0799
     17 C          -0.4268    0.9757    0.4311 C.ar    1  UNL1        0.1666
     18 C          -0.1464   -2.0095   -1.6760 C.2     1  UNL1       -0.0557
     19 C           1.2323    2.6558   -1.0109 C.ar    1  UNL1       -0.0546
     20 C           5.4018   -0.2229    0.4481 C.3     1  UNL1       -0.0124
     21 C          -0.8976    2.2311    0.1152 C.ar    1  UNL1        0.1618
     22 C          -0.0466    3.0827   -0.6007 C.ar    1  UNL1       -0.0160
     23 C          -3.0849   -2.2521    0.4785 C.3     1  UNL1        0.0719
     24 C          -4.5263   -1.8575    0.2205 C.3     1  UNL1        0.0707
     25 C          -2.5435    3.9474    0.0770 C.3     1  UNL1        0.0790
     26 C          -5.9482   -0.0109   -0.0816 C.3     1  UNL1        0.0365
     27 H           2.2689   -2.5061   -0.1061 H       1  UNL1        0.0368
     28 H           3.8699   -1.1665   -1.4670 H       1  UNL1        0.0472
     29 H          -0.4107   -1.8355    1.7092 H       1  UNL1        0.0772
     30 H           2.0194   -1.7498    2.3103 H       1  UNL1        0.0287
     31 H           1.4087   -0.1384    2.6664 H       1  UNL1        0.0287
     32 H           2.8681    0.7349   -2.2942 H       1  UNL1        0.0329
     33 H           3.8011    1.4639   -0.9997 H       1  UNL1        0.0329
     34 H           3.3008    0.9351    1.6433 H       1  UNL1        0.0427
     35 H           3.9177   -0.3721    2.6386 H       1  UNL1        0.0427
     36 H          -0.8349   -3.1472   -0.0908 H       1  UNL1        0.0678
     37 H           1.6833   -1.7956   -2.6874 H       1  UNL1        0.0573
     38 H          -0.6801   -2.2335   -2.5952 H       1  UNL1        0.0596
     39 H           1.8476    3.3170   -1.6154 H       1  UNL1        0.0622
     40 H           5.9195   -0.6820   -0.4012 H       1  UNL1        0.0391
     41 H           5.9835   -0.4798    1.3406 H       1  UNL1        0.0391
     42 H           5.4368    0.8645    0.3293 H       1  UNL1        0.0391
     43 H          -0.3298    4.0857   -0.9051 H       1  UNL1        0.0655
     44 H          -3.0127   -3.3448    0.5240 H       1  UNL1        0.0583
     45 H          -2.7745   -1.8377    1.4422 H       1  UNL1        0.0583
     46 H          -5.1707   -2.2504    1.0145 H       1  UNL1        0.0582
     47 H          -4.8529   -2.2616   -0.7449 H       1  UNL1        0.0582
     48 H          -3.5661    4.0957    0.4386 H       1  UNL1        0.0660
     49 H          -2.5658    4.0647   -1.0116 H       1  UNL1        0.0660
     50 H          -1.9164    4.7032    0.5617 H       1  UNL1        0.0660
     51 H          -5.9608    1.0822   -0.0973 H       1  UNL1        0.0524
     52 H          -6.6248   -0.3566    0.7059 H       1  UNL1        0.0524
     53 H          -6.2847   -0.3775   -1.0562 H       1  UNL1        0.0524
@<TRIPOS>BOND
     1     1     9    1
     2     1    17    1
     3     2    14    1
     4     2    23    1
     5     3    21    1
     6     3    25    1
     7     4    24    1
     8     4    26    1
     9     5     8    1
    10     5    13    1
    11     5    20    1
    12     6     7    1
    13     6     9    1
    14     6    10    1
    15     6    11    1
    16     7     8    1
    17     7    16    1
    18     7    27    1
    19     8    12    1
    20     8    28    1
    21     9    14    1
    22     9    29    1
    23    10    13    1
    24    10    30    1
    25    10    31    1
    26    11    15   ar
    27    11    17   ar
    28    12    15    1
    29    12    32    1
    30    12    33    1
    31    13    34    1
    32    13    35    1
    33    14    18    1
    34    14    36    1
    35    15    19   ar
    36    16    18    2
    37    16    37    1
    38    17    21   ar
    39    18    38    1
    40    19    22   ar
    41    19    39    1
    42    20    40    1
    43    20    41    1
    44    20    42    1
    45    21    22   ar
    46    22    43    1
    47    23    24    1
    48    23    44    1
    49    23    45    1
    50    24    46    1
    51    24    47    1
    52    25    48    1
    53    25    49    1
    54    25    50    1
    55    26    51    1
    56    26    52    1
    57    26    53    1
@<TRIPOS>MOLECULE
129636325
 51 54 0 0 0
SMALL
GASTEIGER

@<TRIPOS>ATOM
      1 O           1.1024    0.7872    0.5034 O.3     1  UNL1       -0.4818
      2 O           2.9974   -1.1162    0.6795 O.3     1  UNL1       -0.1722
      3 O           3.7891   -1.0050   -0.5387 O.3     1  UNL1       -0.2967
      4 O           0.3613    3.2596   -0.6214 O.3     1  UNL1       -0.4915
      5 O           5.0619    0.3628    0.8256 O.2     1  UNL1       -0.2479
      6 N          -3.1961   -1.1193   -1.0246 N.3     1  UNL1       -0.3015
      7 C          -0.5180   -0.8272   -0.7462 C.3     1  UNL1        0.0078
      8 C          -1.1615   -1.9053    0.1781 C.3     1  UNL1       -0.0006
      9 C          -2.6833   -1.5545    0.3210 C.3     1  UNL1        0.0207
     10 C           0.9386   -0.3961   -0.3958 C.3     1  UNL1        0.1373
     11 C          -0.8921   -1.2584   -2.1651 C.3     1  UNL1       -0.0333
     12 C          -2.4104   -1.6455   -2.1790 C.3     1  UNL1       -0.0007
     13 C           1.7130   -1.5612    0.2513 C.3     1  UNL1        0.1603
     14 C          -3.0458   -0.5120    1.4633 C.3     1  UNL1       -0.0113
     15 C          -0.3665   -2.3040    1.3872 C.2     1  UNL1       -0.0803
     16 C           0.9693   -2.1733    1.4066 C.2     1  UNL1       -0.0516
     17 C          -4.6142   -1.4383   -1.1883 C.3     1  UNL1       -0.0125
     18 C          -2.2791    0.7970    1.3833 C.ar    1  UNL1       -0.0422
     19 C          -0.0631    1.4253    0.8632 C.ar    1  UNL1        0.1627
     20 C          -0.9276    0.7564    1.7167 C.ar    1  UNL1       -0.0130
     21 C          -2.7670    1.8931    0.6609 C.ar    1  UNL1       -0.0548
     22 C          -0.4976    2.5365    0.1440 C.ar    1  UNL1        0.1615
     23 C          -1.8663    2.8127    0.1106 C.ar    1  UNL1       -0.0160
     24 C           4.8358   -0.1777   -0.2487 C.2     1  UNL1        0.3400
     25 C          -0.1767    4.3816   -1.3216 C.3     1  UNL1        0.0790
     26 C           5.6963   -0.0183   -1.4653 C.3     1  UNL1        0.0363
     27 H          -1.0949    0.0899   -0.7138 H       1  UNL1        0.0344
     28 H          -1.1511   -2.8609   -0.3749 H       1  UNL1        0.0362
     29 H          -3.1857   -2.4937    0.5961 H       1  UNL1        0.0471
     30 H           1.4449   -0.0862   -1.3179 H       1  UNL1        0.0767
     31 H          -0.2842   -2.1068   -2.4986 H       1  UNL1        0.0282
     32 H          -0.7149   -0.4295   -2.8609 H       1  UNL1        0.0282
     33 H          -2.8356   -1.2649   -3.1162 H       1  UNL1        0.0427
     34 H          -2.5006   -2.7393   -2.2211 H       1  UNL1        0.0427
     35 H           1.8573   -2.3635   -0.4860 H       1  UNL1        0.0721
     36 H          -2.8429   -0.9753    2.4379 H       1  UNL1        0.0329
     37 H          -4.1220   -0.3033    1.4613 H       1  UNL1        0.0329
     38 H          -0.8740   -2.7851    2.2171 H       1  UNL1        0.0573
     39 H           1.5302   -2.5398    2.2608 H       1  UNL1        0.0597
     40 H          -5.2189   -0.9830   -0.3981 H       1  UNL1        0.0391
     41 H          -4.7935   -2.5193   -1.1811 H       1  UNL1        0.0391
     42 H          -4.9914   -1.0347   -2.1347 H       1  UNL1        0.0391
     43 H          -0.5490   -0.0416    2.3420 H       1  UNL1        0.0658
     44 H          -3.8257    1.9793    0.4328 H       1  UNL1        0.0621
     45 H          -2.3016    3.6349   -0.4471 H       1  UNL1        0.0655
     46 H          -0.6169    5.1128   -0.6350 H       1  UNL1        0.0660
     47 H          -0.8810    4.0666   -2.0988 H       1  UNL1        0.0660
     48 H           0.6580    4.8778   -1.8273 H       1  UNL1        0.0660
     49 H           6.0973   -0.9896   -1.7659 H       1  UNL1        0.0343
     50 H           5.1133    0.4258   -2.2761 H       1  UNL1        0.0343
     51 H           6.5328    0.6472   -1.2332 H       1  UNL1        0.0343
@<TRIPOS>BOND
     1     1    10    1
     2     1    19    1
     3     2     3    1
     4     2    13    1
     5     3    24    1
     6     4    22    1
     7     4    25    1
     8     5    24    2
     9     6     9    1
    10     6    12    1
    11     6    17    1
    12     7     8    1
    13     7    10    1
    14     7    11    1
    15     7    27    1
    16     8     9    1
    17     8    15    1
    18     8    28    1
    19     9    14    1
    20     9    29    1
    21    10    13    1
    22    10    30    1
    23    11    12    1
    24    11    31    1
    25    11    32    1
    26    12    33    1
    27    12    34    1
    28    13    16    1
    29    13    35    1
    30    14    18    1
    31    14    36    1
    32    14    37    1
    33    15    16    2
    34    15    38    1
    35    16    39    1
    36    17    40    1
    37    17    41    1
    38    17    42    1
    39    18    20   ar
    40    18    21   ar
    41    19    20   ar
    42    19    22   ar
    43    20    43    1
    44    21    23   ar
    45    21    44    1
    46    22    23   ar
    47    23    45    1
    48    24    26    1
    49    25    46    1
    50    25    47    1
    51    25    48    1
    52    26    49    1
    53    26    50    1
    54    26    51    1
@<TRIPOS>MOLECULE
129737557
 50 53 0 0 0
SMALL
GASTEIGER

@<TRIPOS>ATOM
      1 O          -1.6882   -0.8388    0.4041 O.2     1  UNL1       -0.4862
      2 O          -3.7372    0.9273    0.3867 O.3     1  UNL1       -0.3721
      3 O          -0.5099   -2.7959   -1.3474 O.2     1  UNL1       -0.4918
      4 N           2.5229    1.0990   -0.8997 N.3     1  UNL1       -0.3018
      5 C          -0.1339    0.7949   -0.7729 C.3     1  UNL1        0.0077
      6 C           0.4050    1.8507    0.2091 C.3     1  UNL1       -0.0009
      7 C           1.9153    1.5260    0.4059 C.3     1  UNL1        0.0173
      8 C          -1.5765    0.3012   -0.5287 C.3     1  UNL1        0.1328
      9 C           0.3088    1.2395   -2.1656 C.3     1  UNL1       -0.0333
     10 C           2.2433    0.5608    1.5914 C.3     1  UNL1       -0.0301
     11 C           1.8130    1.6522   -2.0880 C.3     1  UNL1       -0.0007
     12 C          -2.4376    1.4240    0.0782 C.3     1  UNL1        0.1134
     13 C          -0.4659    2.1494    1.3934 C.2     1  UNL1       -0.0804
     14 C           1.7355   -0.9075    1.7324 C.3     1  UNL1       -0.0141
     15 C          -1.7970    1.9934    1.3162 C.2     1  UNL1       -0.0557
     16 C           0.2098   -1.0751    1.9330 C.3     1  UNL1        0.0149
     17 C          -0.5167   -1.5109    0.6858 C.2     1  UNL1        0.1401
     18 C           3.9490    1.4168   -0.9694 C.3     1  UNL1       -0.0125
     19 C           2.2819   -1.9143    0.7412 C.2     1  UNL1       -0.0769
     20 C           0.0774   -2.3502   -0.1871 C.2     1  UNL1        0.1570
     21 C           1.4919   -2.6402   -0.0704 C.2     1  UNL1       -0.0203
     22 C          -4.5376    0.8093   -0.7801 C.3     1  UNL1        0.0374
     23 C          -1.5533   -3.7118   -1.0683 C.3     1  UNL1        0.0789
     24 H           0.4919   -0.0789   -0.6749 H       1  UNL1        0.0344
     25 H           0.3894    2.8256   -0.3084 H       1  UNL1        0.0362
     26 H           2.3746    2.4883    0.6811 H       1  UNL1        0.0468
     27 H          -1.9979   -0.0616   -1.4717 H       1  UNL1        0.0765
     28 H          -0.2951    2.0778   -2.5303 H       1  UNL1        0.0282
     29 H           0.1888    0.4092   -2.8718 H       1  UNL1        0.0282
     30 H           1.9305    1.0806    2.5087 H       1  UNL1        0.0286
     31 H           3.3378    0.5179    1.6800 H       1  UNL1        0.0286
     32 H           2.2989    1.3035   -3.0078 H       1  UNL1        0.0427
     33 H           1.8887    2.7477   -2.0912 H       1  UNL1        0.0427
     34 H          -2.5324    2.2545   -0.6352 H       1  UNL1        0.0677
     35 H          -0.0260    2.5965    2.2787 H       1  UNL1        0.0573
     36 H           2.1660   -1.2268    2.6956 H       1  UNL1        0.0348
     37 H          -2.4244    2.2957    2.1486 H       1  UNL1        0.0596
     38 H          -0.2276   -0.1832    2.3816 H       1  UNL1        0.0350
     39 H           0.0415   -1.8645    2.6806 H       1  UNL1        0.0350
     40 H           4.5056    0.9350   -0.1600 H       1  UNL1        0.0391
     41 H           4.1314    2.4962   -0.9216 H       1  UNL1        0.0391
     42 H           4.3806    1.0383   -1.9028 H       1  UNL1        0.0391
     43 H           3.3524   -2.0992    0.7464 H       1  UNL1        0.0576
     44 H           1.9253   -3.3768   -0.7389 H       1  UNL1        0.0652
     45 H          -4.6015    1.7620   -1.3151 H       1  UNL1        0.0524
     46 H          -5.5478    0.5301   -0.4666 H       1  UNL1        0.0524
     47 H          -4.1678    0.0231   -1.4428 H       1  UNL1        0.0524
     48 H          -1.8941   -4.1352   -2.0180 H       1  UNL1        0.0660
     49 H          -2.4099   -3.2163   -0.5998 H       1  UNL1        0.0660
     50 H          -1.2030   -4.5381   -0.4391 H       1  UNL1        0.0660
@<TRIPOS>BOND
     1     1     8    1
     2     1    17    1
     3     2    12    1
     4     2    22    1
     5     3    20    1
     6     3    23    1
     7     4     7    1
     8     4    11    1
     9     4    18    1
    10     5     6    1
    11     5     8    1
    12     5     9    1
    13     5    24    1
    14     6     7    1
    15     6    13    1
    16     6    25    1
    17     7    10    1
    18     7    26    1
    19     8    12    1
    20     8    27    1
    21     9    11    1
    22     9    28    1
    23     9    29    1
    24    10    14    1
    25    10    30    1
    26    10    31    1
    27    11    32    1
    28    11    33    1
    29    12    15    1
    30    12    34    1
    31    13    15    2
    32    13    35    1
    33    14    16    1
    34    14    19    1
    35    14    36    1
    36    15    37    1
    37    16    17    1
    38    16    38    1
    39    16    39    1
    40    17    20    2
    41    18    40    1
    42    18    41    1
    43    18    42    1
    44    19    21    2
    45    19    43    1
    46    20    21    1
    47    21    44    1
    48    22    45    1
    49    22    46    1
    50    22    47    1
    51    23    48    1
    52    23    49    1
    53    23    50    1
@<TRIPOS>MOLECULE
129839560
 52 55 0 0 0
SMALL
GASTEIGER

@<TRIPOS>ATOM
      1 S           4.8668   -0.0436   -0.1705 S.O2    1  UNL1        0.1054
      2 O           0.8741    0.7697    0.5655 O.3     1  UNL1       -0.4819
      3 O           2.7636   -1.1370    0.7630 O.3     1  UNL1       -0.1992
      4 O           3.5796   -1.0135   -0.4343 O.3     1  UNL1       -0.0719
      5 O           0.1598    3.2551   -0.5478 O.3     1  UNL1       -0.4915
      6 O           4.4075    1.3157    0.0294 O.2     1  UNL1       -0.1453
      7 O           5.7752   -0.6913    0.7533 O.2     1  UNL1       -0.1453
      8 N          -3.3897   -1.1163   -1.0808 N.3     1  UNL1       -0.3015
      9 C          -0.7184   -0.8294   -0.7385 C.3     1  UNL1        0.0078
     10 C          -1.3832   -1.9173    0.1587 C.3     1  UNL1       -0.0006
     11 C          -2.9077   -1.5670    0.2711 C.3     1  UNL1        0.0207
     12 C           0.7301   -0.4033   -0.3504 C.3     1  UNL1        0.1364
     13 C          -1.0606   -1.2442   -2.1703 C.3     1  UNL1       -0.0333
     14 C          -2.5784   -1.6300   -2.2229 C.3     1  UNL1       -0.0007
     15 C           1.4891   -1.5762    0.3008 C.3     1  UNL1        0.1510
     16 C          -3.2954   -0.5371    1.4166 C.3     1  UNL1       -0.0113
     17 C          -0.6160   -2.3301    1.3809 C.2     1  UNL1       -0.0803
     18 C           0.7191   -2.2007    1.4320 C.2     1  UNL1       -0.0526
     19 C          -4.8039   -1.4324   -1.2801 C.3     1  UNL1       -0.0125
     20 C          -2.5264    0.7721    1.3688 C.ar    1  UNL1       -0.0422
     21 C          -0.2989    1.4045    0.9060 C.ar    1  UNL1        0.1627
     22 C          -1.1828    0.7267    1.7321 C.ar    1  UNL1       -0.0130
     23 C          -2.9974    1.8766    0.6479 C.ar    1  UNL1       -0.0548
     24 C          -0.7165    2.5241    0.1898 C.ar    1  UNL1        0.1615
     25 C          -2.0840    2.8017    0.1285 C.ar    1  UNL1       -0.0160
     26 C          -0.3617    4.3854   -1.2473 C.3     1  UNL1        0.0790
     27 C           5.5561   -0.1624   -1.8016 C.3     1  UNL1        0.0841
     28 H          -1.2954    0.0877   -0.7089 H       1  UNL1        0.0344
     29 H          -1.3608   -2.8666   -0.4046 H       1  UNL1        0.0362
     30 H          -3.4167   -2.5088    0.5242 H       1  UNL1        0.0471
     31 H           1.2575   -0.0834   -1.2572 H       1  UNL1        0.0766
     32 H          -0.4456   -2.0893   -2.4995 H       1  UNL1        0.0282
     33 H          -0.8673   -0.4077   -2.8525 H       1  UNL1        0.0282
     34 H          -2.9820   -1.2386   -3.1652 H       1  UNL1        0.0427
     35 H          -2.6682   -2.7232   -2.2793 H       1  UNL1        0.0427
     36 H           1.6495   -2.3703   -0.4420 H       1  UNL1        0.0711
     37 H          -3.1149   -1.0115    2.3903 H       1  UNL1        0.0329
     38 H          -4.3712   -0.3276    1.3926 H       1  UNL1        0.0329
     39 H          -1.1423   -2.8202    2.1937 H       1  UNL1        0.0573
     40 H           1.2604   -2.5772    2.2945 H       1  UNL1        0.0597
     41 H          -5.4261   -0.9856   -0.4986 H       1  UNL1        0.0391
     42 H          -4.9838   -2.5132   -1.2891 H       1  UNL1        0.0391
     43 H          -5.1593   -1.0179   -2.2301 H       1  UNL1        0.0391
     44 H          -0.8189   -0.0785    2.3568 H       1  UNL1        0.0658
     45 H          -4.0506    1.9662    0.3968 H       1  UNL1        0.0621
     46 H          -2.5061    3.6305   -0.4296 H       1  UNL1        0.0655
     47 H           0.4845    4.8866   -1.7284 H       1  UNL1        0.0660
     48 H          -0.8169    5.1091   -0.5627 H       1  UNL1        0.0660
     49 H          -1.0484    4.0796   -2.0438 H       1  UNL1        0.0660
     50 H           4.8283    0.2169   -2.5214 H       1  UNL1        0.0490
     51 H           6.4630    0.4451   -1.8321 H       1  UNL1        0.0490
     52 H           5.7989   -1.2064   -2.0079 H       1  UNL1        0.0490
@<TRIPOS>BOND
     1     1     4    1
     2     1     6    2
     3     1     7    2
     4     1    27    1
     5     2    12    1
     6     2    21    1
     7     3     4    1
     8     3    15    1
     9     5    24    1
    10     5    26    1
    11     8    11    1
    12     8    14    1
    13     8    19    1
    14     9    10    1
    15     9    12    1
    16     9    13    1
    17     9    28    1
    18    10    11    1
    19    10    17    1
    20    10    29    1
    21    11    16    1
    22    11    30    1
    23    12    15    1
    24    12    31    1
    25    13    14    1
    26    13    32    1
    27    13    33    1
    28    14    34    1
    29    14    35    1
    30    15    18    1
    31    15    36    1
    32    16    20    1
    33    16    37    1
    34    16    38    1
    35    17    18    2
    36    17    39    1
    37    18    40    1
    38    19    41    1
    39    19    42    1
    40    19    43    1
    41    20    22   ar
    42    20    23   ar
    43    21    22   ar
    44    21    24   ar
    45    22    44    1
    46    23    25   ar
    47    23    45    1
    48    24    25   ar
    49    25    46    1
    50    26    47    1
    51    26    48    1
    52    26    49    1
    53    27    50    1
    54    27    51    1
    55    27    52    1
@<TRIPOS>MOLECULE
6426111
 51 55 0 0 0
SMALL
GASTEIGER

@<TRIPOS>ATOM
      1 F          -4.7386   -0.1348    1.5436 F       1  UNL1       -0.1833
      2 F          -5.1056   -1.4834   -0.1241 F       1  UNL1       -0.1833
      3 F          -4.3316    0.4679   -1.8979 F       1  UNL1       -0.1645
      4 F          -5.9580    1.0706   -0.5767 F       1  UNL1       -0.1645
      5 F          -3.9407    1.8380   -0.2471 F       1  UNL1       -0.1645
      6 O           0.2226   -1.4396   -0.7330 O.3     1  UNL1       -0.4799
      7 O          -2.1907   -0.0795    1.1618 O.3     1  UNL1       -0.4490
      8 O           1.8746   -3.8447   -0.6062 O.3     1  UNL1       -0.4914
      9 O          -2.4056   -1.5800   -0.5789 O.2     1  UNL1       -0.2437
     10 N           2.7935    3.0757   -0.7092 N.3     1  UNL1       -0.3015
     11 C           1.0251    0.8030   -0.3289 C.3     1  UNL1        0.0491
     12 C           1.1525    1.9337    0.6980 C.3     1  UNL1        0.0064
     13 C           2.6280    2.4435    0.6228 C.3     1  UNL1        0.0213
     14 C          -0.2114   -0.1135   -0.2414 C.3     1  UNL1        0.1509
     15 C           1.2471    1.3961   -1.7369 C.3     1  UNL1       -0.0263
     16 C           2.0507   -0.2456   -0.0696 C.ar    1  UNL1        0.0116
     17 C           3.6721    1.3241    0.9656 C.3     1  UNL1       -0.0110
     18 C           2.5745    2.1692   -1.8417 C.3     1  UNL1       -0.0001
     19 C           3.3076   -0.0477    0.4669 C.ar    1  UNL1       -0.0383
     20 C          -0.7797   -0.3088    1.1911 C.3     1  UNL1        0.1589
     21 C           0.6916    1.5347    2.0708 C.2     1  UNL1       -0.0788
     22 C           1.5518   -1.4916   -0.3870 C.ar    1  UNL1        0.1666
     23 C          -0.1857    0.5438    2.2767 C.2     1  UNL1       -0.0439
     24 C           4.0443    3.8133   -0.8519 C.3     1  UNL1       -0.0124
     25 C           4.1212   -1.1738    0.5949 C.ar    1  UNL1       -0.0546
     26 C           2.3413   -2.6139   -0.2845 C.ar    1  UNL1        0.1618
     27 C           3.6451   -2.4437    0.2031 C.ar    1  UNL1       -0.0160
     28 C          -2.8815   -0.7856    0.2221 C.2     1  UNL1        0.3876
     29 C          -4.3429   -0.4304    0.2763 C.3     1  UNL1        0.4353
     30 C           2.7760   -4.9451   -0.4642 C.3     1  UNL1        0.0790
     31 C          -4.6477    0.7480   -0.6145 C.3     1  UNL1        0.4654
     32 H           0.4900    2.7644    0.4090 H       1  UNL1        0.0368
     33 H           2.7465    3.2401    1.3704 H       1  UNL1        0.0472
     34 H          -0.9626    0.2720   -0.9409 H       1  UNL1        0.0783
     35 H           0.4202    2.0812   -1.9679 H       1  UNL1        0.0287
     36 H           1.2299    0.6174   -2.5104 H       1  UNL1        0.0287
     37 H           3.7387    1.2603    2.0601 H       1  UNL1        0.0329
     38 H           4.6727    1.5915    0.6119 H       1  UNL1        0.0329
     39 H           3.4073    1.4619   -1.9413 H       1  UNL1        0.0427
     40 H           2.5509    2.7473   -2.7740 H       1  UNL1        0.0427
     41 H          -0.6381   -1.3507    1.5108 H       1  UNL1        0.0817
     42 H           1.0409    2.1152    2.9199 H       1  UNL1        0.0574
     43 H          -0.5019    0.3353    3.2958 H       1  UNL1        0.0607
     44 H           5.1207   -1.0840    1.0122 H       1  UNL1        0.0622
     45 H           4.0213    4.4229   -1.7623 H       1  UNL1        0.0391
     46 H           4.9197    3.1589   -0.9112 H       1  UNL1        0.0391
     47 H           4.1858    4.5085   -0.0172 H       1  UNL1        0.0391
     48 H           4.3403   -3.2678    0.3324 H       1  UNL1        0.0655
     49 H           3.6456   -4.8375   -1.1211 H       1  UNL1        0.0660
     50 H           2.2404   -5.8456   -0.7816 H       1  UNL1        0.0660
     51 H           3.0643   -5.0923    0.5819 H       1  UNL1        0.0660
@<TRIPOS>BOND
     1     1    29    1
     2     2    29    1
     3     3    31    1
     4     4    31    1
     5     5    31    1
     6     6    14    1
     7     6    22    1
     8     7    20    1
     9     7    28    1
    10     8    26    1
    11     8    30    1
    12     9    28    2
    13    10    13    1
    14    10    18    1
    15    10    24    1
    16    11    12    1
    17    11    14    1
    18    11    15    1
    19    11    16    1
    20    12    13    1
    21    12    21    1
    22    12    32    1
    23    13    17    1
    24    13    33    1
    25    14    20    1
    26    14    34    1
    27    15    18    1
    28    15    35    1
    29    15    36    1
    30    16    19   ar
    31    16    22   ar
    32    17    19    1
    33    17    37    1
    34    17    38    1
    35    18    39    1
    36    18    40    1
    37    19    25   ar
    38    20    23    1
    39    20    41    1
    40    21    23    2
    41    21    42    1
    42    22    26   ar
    43    23    43    1
    44    24    45    1
    45    24    46    1
    46    24    47    1
    47    25    27   ar
    48    25    44    1
    49    26    27   ar
    50    27    48    1
    51    28    29    1
    52    29    31    1
    53    30    49    1
    54    30    50    1
    55    30    51    1
@<TRIPOS>MOLECULE
71314975
 49 53 0 0 0
SMALL
GASTEIGER

@<TRIPOS>ATOM
      1 S          -3.7093    1.6259   -0.1614 S.O2    1  UNL1        0.0799
      2 O          -1.2402   -0.2342   -1.0588 O.3     1  UNL1       -0.4810
      3 O          -2.5281    1.0900    0.8278 O.3     1  UNL1       -0.2275
      4 O          -2.0084   -3.0042   -0.6748 O.3     1  UNL1       -0.4914
      5 O          -3.7645    0.7900   -1.3435 O.2     1  UNL1       -0.1475
      6 O          -3.6504    3.0711   -0.2446 O.2     1  UNL1       -0.1475
      7 N           3.9397    1.3959   -0.2545 N.3     1  UNL1       -0.3015
      8 C           0.9272    0.7412   -0.5541 C.3     1  UNL1        0.0481
      9 C           1.6967    1.3134    0.6182 C.3     1  UNL1        0.0064
     10 C           3.0268    0.4867    0.4265 C.3     1  UNL1        0.0213
     11 C          -0.5826    1.0204   -0.6641 C.3     1  UNL1        0.1424
     12 C           1.7779    1.1078   -1.8407 C.3     1  UNL1       -0.0263
     13 C           0.8115   -0.7516   -0.2031 C.ar    1  UNL1        0.0116
     14 C           2.9718   -0.8498    1.1781 C.3     1  UNL1       -0.0110
     15 C           3.2224    1.7924   -1.5401 C.3     1  UNL1       -0.0001
     16 C          -1.2064    1.5882    0.6432 C.3     1  UNL1        0.1431
     17 C           1.6973   -1.5202    0.6023 C.ar    1  UNL1       -0.0383
     18 C           0.9246    1.2549    1.9097 C.2     1  UNL1       -0.0798
     19 C          -0.4288   -1.2199   -0.5642 C.ar    1  UNL1        0.1666
     20 C          -0.4135    1.3697    1.9078 C.2     1  UNL1       -0.0534
     21 C           1.3356   -2.8359    0.8798 C.ar    1  UNL1       -0.0546
     22 C           5.2504    0.8121   -0.5118 C.3     1  UNL1       -0.0124
     23 C          -0.7931   -2.5251   -0.3071 C.ar    1  UNL1        0.1618
     24 C           0.1068   -3.3368    0.4042 C.ar    1  UNL1       -0.0160
     25 C          -5.0699    1.1873    0.8899 C.3     1  UNL1        0.0817
     26 C          -2.2932   -4.3694   -0.3647 C.3     1  UNL1        0.0790
     27 H           1.8777    2.3904    0.4816 H       1  UNL1        0.0368
     28 H           3.0153   -0.1156   -0.4972 H       1  UNL1        0.0472
     29 H          -0.7954    1.7312   -1.4716 H       1  UNL1        0.0772
     30 H           1.2247    1.8183   -2.4663 H       1  UNL1        0.0287
     31 H           1.9411    0.2069   -2.4462 H       1  UNL1        0.0287
     32 H           2.8992   -0.7185    2.2612 H       1  UNL1        0.0329
     33 H           3.8460   -1.4725    0.9544 H       1  UNL1        0.0329
     34 H           3.8617    1.6261   -2.4163 H       1  UNL1        0.0427
     35 H           3.0628    2.8765   -1.4808 H       1  UNL1        0.0427
     36 H          -1.2589    2.6811    0.5437 H       1  UNL1        0.0702
     37 H           1.4620    1.1794    2.8490 H       1  UNL1        0.0573
     38 H          -0.9425    1.3807    2.8565 H       1  UNL1        0.0596
     39 H           1.9831   -3.4735    1.4747 H       1  UNL1        0.0622
     40 H           5.7322    0.5293    0.4303 H       1  UNL1        0.0391
     41 H           5.9031    1.5471   -0.9950 H       1  UNL1        0.0391
     42 H           5.1992   -0.0752   -1.1531 H       1  UNL1        0.0391
     43 H          -0.1060   -4.3706    0.6601 H       1  UNL1        0.0655
     44 H          -4.9751    1.7261    1.8346 H       1  UNL1        0.0489
     45 H          -5.9949    1.4761    0.3866 H       1  UNL1        0.0489
     46 H          -5.0558    0.1083    1.0548 H       1  UNL1        0.0489
     47 H          -3.2928   -4.5877   -0.7543 H       1  UNL1        0.0660
     48 H          -2.3266   -4.5349    0.7174 H       1  UNL1        0.0660
     49 H          -1.5966   -5.0492   -0.8667 H       1  UNL1        0.0660
@<TRIPOS>BOND
     1     1     3    1
     2     1     5    2
     3     1     6    2
     4     1    25    1
     5     2    11    1
     6     2    19    1
     7     3    16    1
     8     4    23    1
     9     4    26    1
    10     7    10    1
    11     7    15    1
    12     7    22    1
    13     8     9    1
    14     8    11    1
    15     8    12    1
    16     8    13    1
    17     9    10    1
    18     9    18    1
    19     9    27    1
    20    10    14    1
    21    10    28    1
    22    11    16    1
    23    11    29    1
    24    12    15    1
    25    12    30    1
    26    12    31    1
    27    13    17   ar
    28    13    19   ar
    29    14    17    1
    30    14    32    1
    31    14    33    1
    32    15    34    1
    33    15    35    1
    34    16    20    1
    35    16    36    1
    36    17    21   ar
    37    18    20    2
    38    18    37    1
    39    19    23   ar
    40    20    38    1
    41    21    24   ar
    42    21    39    1
    43    22    40    1
    44    22    41    1
    45    22    42    1
    46    23    24   ar
    47    24    43    1
    48    25    44    1
    49    25    45    1
    50    25    46    1
    51    26    47    1
    52    26    48    1
    53    26    49    1
@<TRIPOS>MOLECULE
129632646
 47 52 0 0 0
SMALL
GASTEIGER

@<TRIPOS>ATOM
      1 P          -2.3817   -0.9682    1.3458 P.3     1  UNL1        0.5054
      2 O          -0.8033   -0.4507    1.1237 O.3     1  UNL1       -0.2713
      3 O          -3.0239    0.4911    1.1362 O.3     1  UNL1       -0.2774
      4 O           0.6283   -1.4483   -1.6265 O.3     1  UNL1       -0.4791
      5 O          -2.9654   -0.8699   -1.2897 O.3     1  UNL1       -0.2137
      6 O          -2.8966   -1.7280   -0.0355 O.3     1  UNL1       -0.1253
      7 O          -2.6870   -1.6508    2.6429 O.2     1  UNL1       -0.2247
      8 O           1.6269   -2.8493    0.6630 O.3     1  UNL1       -0.4915
      9 N          -0.1416    3.0020    0.7822 N.3     1  UNL1       -0.2989
     10 C          -0.8816    0.2145   -0.1362 C.3     1  UNL1        0.1555
     11 C          -0.1436    1.3119   -0.8954 C.3     1  UNL1        0.0289
     12 C          -2.0720    1.2048    0.3497 C.3     1  UNL1        0.1164
     13 C           0.7679    1.9976    0.1552 C.3     1  UNL1        0.0233
     14 C          -0.6501   -1.1409   -0.9651 C.3     1  UNL1        0.1652
     15 C          -1.4079    2.3347    1.2793 C.3     1  UNL1        0.0287
     16 C          -1.7178   -1.0394   -2.0039 C.3     1  UNL1        0.1519
     17 C          -0.3795    1.1011   -2.4068 C.2     1  UNL1       -0.0778
     18 C           2.2070    2.3080   -0.3544 C.3     1  UNL1       -0.0113
     19 C          -1.2612    0.1615   -2.8566 C.2     1  UNL1       -0.0524
     20 C           0.4987    3.7553    1.8545 C.3     1  UNL1       -0.0124
     21 C           2.8873    0.9188   -0.4197 C.ar    1  UNL1       -0.0422
     22 C           1.7516   -1.0706   -0.9398 C.ar    1  UNL1        0.1628
     23 C           2.3823    0.0777   -1.4043 C.ar    1  UNL1       -0.0130
     24 C           3.3724    0.3501    0.7696 C.ar    1  UNL1       -0.0548
     25 C           2.1466   -1.6625    0.2545 C.ar    1  UNL1        0.1615
     26 C           3.0465   -0.9764    1.0723 C.ar    1  UNL1       -0.0160
     27 C           2.0979   -3.3741    1.9048 C.3     1  UNL1        0.0790
     28 H          -0.7873    2.1986   -1.0674 H       1  UNL1        0.0389
     29 H          -2.6216    1.6620   -0.4822 H       1  UNL1        0.0645
     30 H           0.9305    1.2957    0.9861 H       1  UNL1        0.0472
     31 H          -0.7903   -2.0490   -0.3656 H       1  UNL1        0.0794
     32 H          -2.1660    3.1084    1.4539 H       1  UNL1        0.0453
     33 H          -1.2115    1.8818    2.2614 H       1  UNL1        0.0453
     34 H          -1.7708   -1.9352   -2.6313 H       1  UNL1        0.0711
     35 H          -0.0056    1.8554   -3.0945 H       1  UNL1        0.0574
     36 H           2.7644    2.9430    0.3412 H       1  UNL1        0.0329
     37 H           2.1999    2.7937   -1.3357 H       1  UNL1        0.0329
     38 H          -1.5299    0.1468   -3.9089 H       1  UNL1        0.0597
     39 H           1.3306    4.3520    1.4674 H       1  UNL1        0.0391
     40 H           0.8767    3.1030    2.6494 H       1  UNL1        0.0391
     41 H          -0.2079    4.4648    2.2993 H       1  UNL1        0.0391
     42 H           2.0861    0.4998   -2.3606 H       1  UNL1        0.0658
     43 H           3.8267    0.9718    1.5365 H       1  UNL1        0.0621
     44 H           3.4050   -1.3523    2.0243 H       1  UNL1        0.0655
     45 H           1.6001   -4.3373    2.0576 H       1  UNL1        0.0660
     46 H           1.8142   -2.7305    2.7443 H       1  UNL1        0.0660
     47 H           3.1750   -3.5704    1.8768 H       1  UNL1        0.0660
@<TRIPOS>BOND
     1     1     2    1
     2     1     3    1
     3     1     6    1
     4     1     7    2
     5     2    10    1
     6     3    12    1
     7     4    14    1
     8     4    22    1
     9     5     6    1
    10     5    16    1
    11     8    25    1
    12     8    27    1
    13     9    13    1
    14     9    15    1
    15     9    20    1
    16    10    11    1
    17    10    12    1
    18    10    14    1
    19    11    13    1
    20    11    17    1
    21    11    28    1
    22    12    15    1
    23    12    29    1
    24    13    18    1
    25    13    30    1
    26    14    16    1
    27    14    31    1
    28    15    32    1
    29    15    33    1
    30    16    19    1
    31    16    34    1
    32    17    19    2
    33    17    35    1
    34    18    21    1
    35    18    36    1
    36    18    37    1
    37    19    38    1
    38    20    39    1
    39    20    40    1
    40    20    41    1
    41    21    23   ar
    42    21    24   ar
    43    22    23   ar
    44    22    25   ar
    45    23    42    1
    46    24    26   ar
    47    24    43    1
    48    25    26   ar
    49    26    44    1
    50    27    45    1
    51    27    46    1
    52    27    47    1
@<TRIPOS>MOLECULE
129696134
 51 54 0 0 0
SMALL
GASTEIGER

@<TRIPOS>ATOM
      1 P           4.8611   -0.1570   -0.2391 P.3     1  UNL1        0.4992
      2 O           0.9006    0.7322    0.5519 O.3     1  UNL1       -0.4819
      3 O           2.7577   -1.2088    0.7200 O.3     1  UNL1       -0.2139
      4 O           3.5630   -1.0924   -0.4835 O.3     1  UNL1       -0.1255
      5 O           0.2205    3.2371   -0.5390 O.3     1  UNL1       -0.4915
      6 O           5.5128   -0.0465   -1.7154 O.3     1  UNL1       -0.3011
      7 O           4.2363    1.3155   -0.0022 O.3     1  UNL1       -0.3011
      8 O           5.8073   -0.6317    0.8244 O.2     1  UNL1       -0.2252
      9 N          -3.4106   -1.0673   -1.0675 N.3     1  UNL1       -0.3015
     10 C          -0.7317   -0.8299   -0.7478 C.3     1  UNL1        0.0078
     11 C          -1.4076   -1.9118    0.1485 C.3     1  UNL1       -0.0006
     12 C          -2.9245   -1.5352    0.2770 C.3     1  UNL1        0.0207
     13 C           0.7276   -0.4319   -0.3702 C.3     1  UNL1        0.1363
     14 C          -1.0940   -1.2292   -2.1790 C.3     1  UNL1       -0.0333
     15 C          -2.6188   -1.5878   -2.2203 C.3     1  UNL1       -0.0007
     16 C           1.4715   -1.6223    0.2667 C.3     1  UNL1        0.1493
     17 C          -3.2836   -0.5062    1.4326 C.3     1  UNL1       -0.0113
     18 C          -0.6368   -2.3460    1.3610 C.2     1  UNL1       -0.0803
     19 C           0.7007   -2.2405    1.4008 C.2     1  UNL1       -0.0526
     20 C          -4.8319   -1.3570   -1.2560 C.3     1  UNL1       -0.0125
     21 C          -2.4920    0.7895    1.3861 C.ar    1  UNL1       -0.0422
     22 C          -0.2579    1.3855    0.9071 C.ar    1  UNL1        0.1627
     23 C          -1.1462    0.7180    1.7369 C.ar    1  UNL1       -0.0130
     24 C          -2.9498    1.9069    0.6766 C.ar    1  UNL1       -0.0548
     25 C          -0.6620    2.5169    0.2019 C.ar    1  UNL1        0.1615
     26 C          -2.0248    2.8191    0.1549 C.ar    1  UNL1       -0.0160
     27 C          -0.2871    4.3810   -1.2265 C.3     1  UNL1        0.0790
     28 H          -1.2921    0.0971   -0.7070 H       1  UNL1        0.0344
     29 H          -1.4071   -2.8576   -0.4210 H       1  UNL1        0.0362
     30 H          -3.4478   -2.4696    0.5287 H       1  UNL1        0.0471
     31 H           1.2524   -0.1155   -1.2796 H       1  UNL1        0.0766
     32 H          -0.4971   -2.0829   -2.5191 H       1  UNL1        0.0282
     33 H          -0.8920   -0.3918   -2.8576 H       1  UNL1        0.0282
     34 H          -3.0239   -1.1831   -3.1563 H       1  UNL1        0.0427
     35 H          -2.7284   -2.6788   -2.2828 H       1  UNL1        0.0427
     36 H           1.6108   -2.4144   -0.4826 H       1  UNL1        0.0710
     37 H          -3.1028   -0.9901    2.4015 H       1  UNL1        0.0329
     38 H          -4.3557   -0.2776    1.4197 H       1  UNL1        0.0329
     39 H          -1.1645   -2.8320    2.1754 H       1  UNL1        0.0573
     40 H           1.2430   -2.6322    2.2559 H       1  UNL1        0.0597
     41 H          -5.4390   -0.9044   -0.4660 H       1  UNL1        0.0391
     42 H          -5.0310   -2.4344   -1.2702 H       1  UNL1        0.0391
     43 H          -5.1885   -0.9301   -2.2000 H       1  UNL1        0.0391
     44 H          -0.7910   -0.0976    2.3530 H       1  UNL1        0.0658
     45 H          -4.0035    2.0167    0.4357 H       1  UNL1        0.0621
     46 H          -2.4372    3.6588   -0.3941 H       1  UNL1        0.0655
     47 H           0.5635    4.8703   -1.7120 H       1  UNL1        0.0660
     48 H          -0.7233    5.1082   -0.5331 H       1  UNL1        0.0660
     49 H          -0.9862    4.0926   -2.0186 H       1  UNL1        0.0660
     50 H           6.3779    0.4039   -1.8195 H       1  UNL1        0.2221
     51 H           4.8371    2.0534    0.2360 H       1  UNL1        0.2221
@<TRIPOS>BOND
     1     1     4    1
     2     1     6    1
     3     1     7    1
     4     1     8    2
     5     2    13    1
     6     2    22    1
     7     3     4    1
     8     3    16    1
     9     5    25    1
    10     5    27    1
    11     6    50    1
    12     7    51    1
    13     9    12    1
    14     9    15    1
    15     9    20    1
    16    10    11    1
    17    10    13    1
    18    10    14    1
    19    10    28    1
    20    11    12    1
    21    11    18    1
    22    11    29    1
    23    12    17    1
    24    12    30    1
    25    13    16    1
    26    13    31    1
    27    14    15    1
    28    14    32    1
    29    14    33    1
    30    15    34    1
    31    15    35    1
    32    16    19    1
    33    16    36    1
    34    17    21    1
    35    17    37    1
    36    17    38    1
    37    18    19    2
    38    18    39    1
    39    19    40    1
    40    20    41    1
    41    20    42    1
    42    20    43    1
    43    21    23   ar
    44    21    24   ar
    45    22    23   ar
    46    22    25   ar
    47    23    44    1
    48    24    26   ar
    49    24    45    1
    50    25    26   ar
    51    26    46    1
    52    27    47    1
    53    27    48    1
    54    27    49    1
@<TRIPOS>MOLECULE
129733751
 53 57 0 0 0
SMALL
GASTEIGER

@<TRIPOS>ATOM
      1 O          -0.0028   -0.3052   -1.2239 O.3     1  UNL1       -0.4504
      2 O           0.1255   -0.9300    1.8780 O.3     1  UNL1       -0.4781
      3 O           2.7250    1.5097    1.0720 O.3     1  UNL1       -0.1717
      4 O           3.9198    0.6375    1.1348 O.3     1  UNL1       -0.2916
      5 O           0.7749   -1.3216   -3.1213 O.2     1  UNL1       -0.2456
      6 O          -0.3078   -3.2074    0.2293 O.3     1  UNL1       -0.4915
      7 O           5.0915   -0.8390   -0.1428 O.2     1  UNL1       -0.2425
      8 N          -2.0149    2.5107   -1.3391 N.3     1  UNL1       -0.3013
      9 C           0.2651    0.7461   -0.2278 C.3     1  UNL1        0.1619
     10 C          -0.8578    1.5777    0.4934 C.3     1  UNL1        0.0367
     11 C          -2.1539    1.4182   -0.3457 C.3     1  UNL1        0.0241
     12 C           0.9470   -0.0775    0.9704 C.3     1  UNL1        0.1738
     13 C           0.6277    1.9236   -1.2292 C.3     1  UNL1        0.0043
     14 C          -0.6971    2.3609   -2.0701 C.3     1  UNL1        0.0027
     15 C           1.7121    0.8742    1.8684 C.3     1  UNL1        0.1639
     16 C          -0.5453    1.9929    1.9315 C.2     1  UNL1       -0.0768
     17 C          -3.4282    1.0954    0.4918 C.3     1  UNL1       -0.0112
     18 C           0.6871    1.8221    2.4604 C.2     1  UNL1       -0.0514
     19 C          -3.1280    2.5718   -2.2788 C.3     1  UNL1       -0.0124
     20 C          -3.2103   -0.3694    0.9506 C.ar    1  UNL1       -0.0422
     21 C          -1.1148   -1.3160    1.4565 C.ar    1  UNL1        0.1629
     22 C          -2.1895   -0.5437    1.8784 C.ar    1  UNL1       -0.0130
     23 C           1.0119   -0.8180   -2.0279 C.2     1  UNL1        0.3328
     24 C          -3.4801   -1.4120    0.0501 C.ar    1  UNL1       -0.0548
     25 C          -1.3119   -2.3498    0.5497 C.ar    1  UNL1        0.1615
     26 C          -2.5475   -2.4457   -0.0954 C.ar    1  UNL1       -0.0160
     27 C           2.3803   -0.9210   -1.4320 C.2     1  UNL1        0.0294
     28 C           3.1828    0.1175   -1.1360 C.2     1  UNL1        0.0322
     29 C           4.1460   -0.0641   -0.0328 C.2     1  UNL1        0.3668
     30 C          -0.6070   -4.2381   -0.7126 C.3     1  UNL1        0.0790
     31 H          -0.6666    2.6510    0.2892 H       1  UNL1        0.0398
     32 H          -2.0673    0.5340   -0.9879 H       1  UNL1        0.0473
     33 H           1.6396   -0.8302    0.6324 H       1  UNL1        0.0805
     34 H           1.3213    1.6591   -2.0240 H       1  UNL1        0.0318
     35 H           1.0557    2.7941   -0.7154 H       1  UNL1        0.0318
     36 H          -0.4687    3.3123   -2.5654 H       1  UNL1        0.0428
     37 H          -0.8228    1.6105   -2.8628 H       1  UNL1        0.0428
     38 H           2.1747    0.3336    2.7048 H       1  UNL1        0.0722
     39 H          -1.2656    2.6183    2.4527 H       1  UNL1        0.0574
     40 H          -4.3396    1.1466   -0.1124 H       1  UNL1        0.0329
     41 H          -3.5443    1.7679    1.3478 H       1  UNL1        0.0329
     42 H           0.9174    2.2677    3.4238 H       1  UNL1        0.0597
     43 H          -4.0626    2.8017   -1.7572 H       1  UNL1        0.0391
     44 H          -3.2579    1.6336   -2.8295 H       1  UNL1        0.0391
     45 H          -2.9722    3.3776   -3.0047 H       1  UNL1        0.0391
     46 H          -2.0446    0.2000    2.6547 H       1  UNL1        0.0658
     47 H          -4.3028   -1.3365   -0.6557 H       1  UNL1        0.0621
     48 H          -2.7856   -3.2060   -0.8314 H       1  UNL1        0.0655
     49 H           2.5922   -1.9111   -1.0315 H       1  UNL1        0.0691
     50 H           3.0580    1.1327   -1.4698 H       1  UNL1        0.0692
     51 H           0.2959   -4.8476   -0.8219 H       1  UNL1        0.0660
     52 H          -0.8345   -3.8231   -1.7003 H       1  UNL1        0.0660
     53 H          -1.3997   -4.8999   -0.3476 H       1  UNL1        0.0660
@<TRIPOS>BOND
     1     1     9    1
     2     1    23    1
     3     2    12    1
     4     2    21    1
     5     3     4    1
     6     3    15    1
     7     4    29    1
     8     5    23    2
     9     6    25    1
    10     6    30    1
    11     7    29    2
    12     8    11    1
    13     8    14    1
    14     8    19    1
    15     9    10    1
    16     9    12    1
    17     9    13    1
    18    10    11    1
    19    10    16    1
    20    10    31    1
    21    11    17    1
    22    11    32    1
    23    12    15    1
    24    12    33    1
    25    13    14    1
    26    13    34    1
    27    13    35    1
    28    14    36    1
    29    14    37    1
    30    15    18    1
    31    15    38    1
    32    16    18    2
    33    16    39    1
    34    17    20    1
    35    17    40    1
    36    17    41    1
    37    18    42    1
    38    19    43    1
    39    19    44    1
    40    19    45    1
    41    20    22   ar
    42    20    24   ar
    43    21    22   ar
    44    21    25   ar
    45    22    46    1
    46    23    27    1
    47    24    26   ar
    48    24    47    1
    49    25    26   ar
    50    26    48    1
    51    27    28    2
    52    27    49    1
    53    28    29    1
    54    28    50    1
    55    30    51    1
    56    30    52    1
    57    30    53    1
@<TRIPOS>MOLECULE
129814463
 52 55 0 0 0
SMALL
GASTEIGER

@<TRIPOS>ATOM
      1 O           0.8599    0.7227    0.5897 O.3     1  UNL1       -0.4818
      2 O           2.6815   -1.2464    0.8105 O.3     1  UNL1       -0.1692
      3 O           3.5230   -1.1464   -0.3750 O.3     1  UNL1       -0.2581
      4 O           0.2463    3.2335   -0.5269 O.3     1  UNL1       -0.4915
      5 O           5.3905   -0.2484   -1.1280 O.3     1  UNL1       -0.4353
      6 O           4.7808    0.1556    1.0574 O.2     1  UNL1       -0.2005
      7 N          -3.4382   -1.0156   -1.1284 N.3     1  UNL1       -0.3015
      8 C          -0.7645   -0.8189   -0.7439 C.3     1  UNL1        0.0078
      9 C          -1.4791   -1.8864    0.1396 C.3     1  UNL1       -0.0006
     10 C          -2.9926   -1.4856    0.2293 C.3     1  UNL1        0.0207
     11 C           0.6912   -0.4424   -0.3320 C.3     1  UNL1        0.1373
     12 C          -1.0979   -1.2184   -2.1821 C.3     1  UNL1       -0.0333
     13 C          -2.6267   -1.5532   -2.2595 C.3     1  UNL1       -0.0007
     14 C           1.4004   -1.6416    0.3273 C.3     1  UNL1        0.1605
     15 C          -3.3636   -0.4464    1.3719 C.3     1  UNL1       -0.0113
     16 C          -0.7452   -2.3277    1.3722 C.2     1  UNL1       -0.0803
     17 C           0.5924   -2.2430    1.4445 C.2     1  UNL1       -0.0516
     18 C          -4.8588   -1.2838   -1.3507 C.3     1  UNL1       -0.0125
     19 C          -2.5508    0.8365    1.3400 C.ar    1  UNL1       -0.0422
     20 C          -0.2965    1.3955    0.9139 C.ar    1  UNL1        0.1627
     21 C          -1.2153    0.7454    1.7241 C.ar    1  UNL1       -0.0130
     22 C          -2.9734    1.9581    0.6154 C.ar    1  UNL1       -0.0548
     23 C          -0.6653    2.5303    0.1947 C.ar    1  UNL1        0.1615
     24 C          -2.0216    2.8535    0.1132 C.ar    1  UNL1       -0.0160
     25 C           4.5847   -0.3599   -0.0351 C.2     1  UNL1        0.5415
     26 C          -0.2262    4.3823   -1.2309 C.3     1  UNL1        0.0790
     27 C           6.5649    0.5508   -0.9513 C.3     1  UNL1        0.0852
     28 H          -1.3110    0.1169   -0.7203 H       1  UNL1        0.0344
     29 H          -1.4796   -2.8344   -0.4263 H       1  UNL1        0.0362
     30 H          -3.5366   -2.4106    0.4716 H       1  UNL1        0.0471
     31 H           1.2427   -0.1380   -1.2296 H       1  UNL1        0.0767
     32 H          -0.5064   -2.0827   -2.5043 H       1  UNL1        0.0282
     33 H          -0.8662   -0.3870   -2.8587 H       1  UNL1        0.0282
     34 H          -3.0023   -1.1461   -3.2066 H       1  UNL1        0.0427
     35 H          -2.7520   -2.6426   -2.3206 H       1  UNL1        0.0427
     36 H           1.5459   -2.4387   -0.4155 H       1  UNL1        0.0721
     37 H          -3.2142   -0.9291    2.3468 H       1  UNL1        0.0329
     38 H          -4.4314   -0.2011    1.3318 H       1  UNL1        0.0329
     39 H          -1.3002   -2.8021    2.1752 H       1  UNL1        0.0573
     40 H           1.1073   -2.6396    2.3141 H       1  UNL1        0.0597
     41 H          -5.4779   -0.8185   -0.5776 H       1  UNL1        0.0391
     42 H          -5.0745   -2.3580   -1.3658 H       1  UNL1        0.0391
     43 H          -5.1854   -0.8552   -2.3048 H       1  UNL1        0.0391
     44 H          -0.8882   -0.0731    2.3518 H       1  UNL1        0.0658
     45 H          -4.0190    2.0834    0.3483 H       1  UNL1        0.0621
     46 H          -2.4071    3.6973   -0.4489 H       1  UNL1        0.0655
     47 H           0.6436    4.8563   -1.6972 H       1  UNL1        0.0660
     48 H          -0.6678    5.1191   -0.5512 H       1  UNL1        0.0660
     49 H          -0.9102    4.1017   -2.0388 H       1  UNL1        0.0660
     50 H           7.2030    0.1194   -0.1741 H       1  UNL1        0.0662
     51 H           6.2887    1.5790   -0.6988 H       1  UNL1        0.0662
     52 H           7.1169    0.5573   -1.8949 H       1  UNL1        0.0662
@<TRIPOS>BOND
     1     1    11    1
     2     1    20    1
     3     2     3    1
     4     2    14    1
     5     3    25    1
     6     4    23    1
     7     4    26    1
     8     5    25    1
     9     5    27    1
    10     6    25    2
    11     7    10    1
    12     7    13    1
    13     7    18    1
    14     8     9    1
    15     8    11    1
    16     8    12    1
    17     8    28    1
    18     9    10    1
    19     9    16    1
    20     9    29    1
    21    10    15    1
    22    10    30    1
    23    11    14    1
    24    11    31    1
    25    12    13    1
    26    12    32    1
    27    12    33    1
    28    13    34    1
    29    13    35    1
    30    14    17    1
    31    14    36    1
    32    15    19    1
    33    15    37    1
    34    15    38    1
    35    16    17    2
    36    16    39    1
    37    17    40    1
    38    18    41    1
    39    18    42    1
    40    18    43    1
    41    19    21   ar
    42    19    22   ar
    43    20    21   ar
    44    20    23   ar
    45    21    44    1
    46    22    24   ar
    47    22    45    1
    48    23    24   ar
    49    24    46    1
    50    26    47    1
    51    26    48    1
    52    26    49    1
    53    27    50    1
    54    27    51    1
    55    27    52    1
@<TRIPOS>MOLECULE
118701633
 43 47 0 0 0
SMALL
GASTEIGER

@<TRIPOS>ATOM
      1 O          -1.5989   -1.2026    0.7123 O.3     1  UNL1       -0.4811
      2 O          -0.8558   -3.8130    0.1901 O.3     1  UNL1       -0.3878
      3 O          -3.9508    0.4568    0.4714 O.3     1  UNL1       -0.4914
      4 N           3.2416    1.1238    0.1699 N.3     1  UNL1       -0.2984
      5 C           0.7195   -0.3894    0.5454 C.3     1  UNL1        0.0624
      6 C          -0.2009   -1.5900    0.8782 C.3     1  UNL1        0.1397
      7 C           1.4971   -0.4051   -0.7431 C.2     1  UNL1       -0.0418
      8 C           2.2583    0.9051   -0.9194 C.3     1  UNL1        0.0363
      9 C           1.6750   -0.1048    1.7240 C.3     1  UNL1       -0.0231
     10 C          -0.3165    0.6513    0.3122 C.ar    1  UNL1        0.0150
     11 C           0.1671   -2.8332    0.0565 C.3     1  UNL1        0.0965
     12 C           1.2517    2.1226   -0.9698 C.3     1  UNL1       -0.0078
     13 C           2.6117    1.0918    1.4984 C.3     1  UNL1        0.0004
     14 C          -0.0992    1.8666   -0.3270 C.ar    1  UNL1       -0.0377
     15 C          -1.5844    0.1487    0.4887 C.ar    1  UNL1        0.1668
     16 C           1.3645   -1.3845   -1.6484 C.2     1  UNL1       -0.0798
     17 C           0.4416   -2.5481   -1.4245 C.3     1  UNL1       -0.0048
     18 C          -1.2044    2.6953   -0.5302 C.ar    1  UNL1       -0.0545
     19 C          -2.6965    0.9362    0.2722 C.ar    1  UNL1        0.1618
     20 C           4.3728    0.1996    0.0830 C.3     1  UNL1       -0.0122
     21 C          -2.4945    2.2394   -0.2002 C.ar    1  UNL1       -0.0160
     22 C          -4.5991   -0.1664   -0.6397 C.3     1  UNL1        0.0790
     23 H          -0.1279   -1.8621    1.9405 H       1  UNL1        0.0771
     24 H           2.8039    0.9088   -1.8724 H       1  UNL1        0.0512
     25 H           2.2875   -0.9980    1.9089 H       1  UNL1        0.0290
     26 H           1.1038    0.0771    2.6440 H       1  UNL1        0.0290
     27 H           1.0813   -3.2592    0.4916 H       1  UNL1        0.0634
     28 H           1.0654    2.3352   -2.0320 H       1  UNL1        0.0332
     29 H           1.6998    3.0306   -0.5478 H       1  UNL1        0.0332
     30 H           2.0467    2.0203    1.6454 H       1  UNL1        0.0427
     31 H           3.3766    1.1109    2.2854 H       1  UNL1        0.0427
     32 H           1.8747   -1.3161   -2.6042 H       1  UNL1        0.0573
     33 H          -0.4986   -2.3744   -1.9623 H       1  UNL1        0.0334
     34 H           0.8812   -3.4458   -1.8769 H       1  UNL1        0.0334
     35 H          -1.0870    3.6636   -1.0087 H       1  UNL1        0.0622
     36 H           4.8643    0.2852   -0.8926 H       1  UNL1        0.0391
     37 H           4.0861   -0.8468    0.2316 H       1  UNL1        0.0391
     38 H           5.1301    0.4537    0.8331 H       1  UNL1        0.0391
     39 H          -3.3479    2.8865   -0.3887 H       1  UNL1        0.0655
     40 H          -0.5825   -4.5944   -0.3201 H       1  UNL1        0.2100
     41 H          -5.5868   -0.5036   -0.3140 H       1  UNL1        0.0660
     42 H          -4.0262   -1.0344   -0.9810 H       1  UNL1        0.0660
     43 H          -4.7240    0.5487   -1.4589 H       1  UNL1        0.0660
@<TRIPOS>BOND
     1     1     6    1
     2     1    15    1
     3     2    11    1
     4     2    40    1
     5     3    19    1
     6     3    22    1
     7     4     8    1
     8     4    13    1
     9     4    20    1
    10     5     6    1
    11     5     7    1
    12     5     9    1
    13     5    10    1
    14     6    11    1
    15     6    23    1
    16     7     8    1
    17     7    16    2
    18     8    12    1
    19     8    24    1
    20     9    13    1
    21     9    25    1
    22     9    26    1
    23    10    14   ar
    24    10    15   ar
    25    11    17    1
    26    11    27    1
    27    12    14    1
    28    12    28    1
    29    12    29    1
    30    13    30    1
    31    13    31    1
    32    14    18   ar
    33    15    19   ar
    34    16    17    1
    35    16    32    1
    36    17    33    1
    37    17    34    1
    38    18    21   ar
    39    18    35    1
    40    19    21   ar
    41    20    36    1
    42    20    37    1
    43    20    38    1
    44    21    39    1
    45    22    41    1
    46    22    42    1
    47    22    43    1
@<TRIPOS>MOLECULE
12310665
 44 48 0 0 0
SMALL
GASTEIGER

@<TRIPOS>ATOM
      1 O           1.8250   -1.0581   -1.1304 O.3     1  UNL1       -0.4811
      2 O          -2.3052    2.4211    1.1495 O.3     1  UNL1       -0.3856
      3 O           2.2509   -3.0189    0.5242 O.3     1  UNL1       -0.3841
      4 O           3.7706    1.0193   -0.5506 O.3     1  UNL1       -0.4914
      5 N          -3.2078    0.2482   -0.6836 N.3     1  UNL1       -0.2990
      6 C          -0.5589   -0.9029   -0.6814 C.3     1  UNL1        0.0482
      7 C          -1.6274   -1.2830    0.3571 C.3     1  UNL1        0.0088
      8 C          -2.4995   -0.0019    0.5938 C.3     1  UNL1        0.0473
      9 C           0.6251   -1.8741   -0.8905 C.3     1  UNL1        0.1399
     10 C          -1.2472   -0.5154   -2.0060 C.3     1  UNL1       -0.0263
     11 C           0.2274    0.2585   -0.1676 C.ar    1  UNL1        0.0140
     12 C          -1.6384    1.1698    1.1974 C.3     1  UNL1        0.0966
     13 C          -2.3332    0.5545   -1.8155 C.3     1  UNL1       -0.0001
     14 C          -0.2462    1.2864    0.6289 C.ar    1  UNL1       -0.0101
     15 C           0.8546   -2.8747    0.2734 C.3     1  UNL1        0.1110
     16 C          -1.0121   -1.8679    1.6012 C.2     1  UNL1       -0.0798
     17 C           1.5545    0.1363   -0.5171 C.ar    1  UNL1        0.1666
     18 C           0.1262   -2.5752    1.5564 C.2     1  UNL1       -0.0559
     19 C           0.6655    2.2862    0.9782 C.ar    1  UNL1       -0.0521
     20 C          -4.3309    1.1706   -0.5983 C.3     1  UNL1       -0.0124
     21 C           2.4660    1.1176   -0.1963 C.ar    1  UNL1        0.1618
     22 C           2.0056    2.2117    0.5468 C.ar    1  UNL1       -0.0159
     23 C           4.6353    2.0918   -0.1697 C.3     1  UNL1        0.0790
     24 H          -2.2780   -2.0711   -0.0518 H       1  UNL1        0.0369
     25 H          -3.2702   -0.2516    1.3365 H       1  UNL1        0.0497
     26 H           0.4800   -2.4622   -1.8060 H       1  UNL1        0.0772
     27 H          -1.7101   -1.4133   -2.4375 H       1  UNL1        0.0287
     28 H          -0.5205   -0.1544   -2.7454 H       1  UNL1        0.0287
     29 H          -1.5131    0.9325    2.2632 H       1  UNL1        0.0659
     30 H          -1.8730    1.5433   -1.6990 H       1  UNL1        0.0427
     31 H          -2.9225    0.5971   -2.7402 H       1  UNL1        0.0427
     32 H           0.5007   -3.8607   -0.0525 H       1  UNL1        0.0675
     33 H          -1.5295   -1.7485    2.5482 H       1  UNL1        0.0573
     34 H           0.5063   -3.0157    2.4740 H       1  UNL1        0.0596
     35 H           0.3640    3.1150    1.6128 H       1  UNL1        0.0622
     36 H          -4.9656    1.0689   -1.4860 H       1  UNL1        0.0391
     37 H          -4.0223    2.2180   -0.5363 H       1  UNL1        0.0391
     38 H          -4.9674    0.9415    0.2632 H       1  UNL1        0.0391
     39 H          -1.8719    3.0221    1.7786 H       1  UNL1        0.2103
     40 H           2.6488    3.0280    0.8610 H       1  UNL1        0.0655
     41 H           2.5909   -2.1560    0.8164 H       1  UNL1        0.2104
     42 H           5.6336    1.8539   -0.5507 H       1  UNL1        0.0660
     43 H           4.7159    2.1719    0.9195 H       1  UNL1        0.0660
     44 H           4.3295    3.0364   -0.6320 H       1  UNL1        0.0660
@<TRIPOS>BOND
     1     1     9    1
     2     1    17    1
     3     2    12    1
     4     2    39    1
     5     3    15    1
     6     3    41    1
     7     4    21    1
     8     4    23    1
     9     5     8    1
    10     5    13    1
    11     5    20    1
    12     6     7    1
    13     6     9    1
    14     6    10    1
    15     6    11    1
    16     7     8    1
    17     7    16    1
    18     7    24    1
    19     8    12    1
    20     8    25    1
    21     9    15    1
    22     9    26    1
    23    10    13    1
    24    10    27    1
    25    10    28    1
    26    11    14   ar
    27    11    17   ar
    28    12    14    1
    29    12    29    1
    30    13    30    1
    31    13    31    1
    32    14    19   ar
    33    15    18    1
    34    15    32    1
    35    16    18    2
    36    16    33    1
    37    17    21   ar
    38    18    34    1
    39    19    22   ar
    40    19    35    1
    41    20    36    1
    42    20    37    1
    43    20    38    1
    44    21    22   ar
    45    22    40    1
    46    23    42    1
    47    23    43    1
    48    23    44    1
@<TRIPOS>MOLECULE
10470963
 44 48 0 0 0
SMALL
GASTEIGER

@<TRIPOS>ATOM
      1 O           1.8082   -0.7590   -1.2738 O.3     1  UNL1       -0.4811
      2 O          -4.0598   -0.6226   -0.6141 O.co2   1  UNL1       -0.7753
      3 O           2.4158   -2.8092    0.2328 O.3     1  UNL1       -0.3841
      4 O           3.7612    1.3244   -0.7384 O.3     1  UNL1       -0.4914
      5 N          -3.2479    0.4567   -0.3100 N.3     1  UNL1        0.2178
      6 C          -0.5322   -0.6832   -0.6097 C.3     1  UNL1        0.0553
      7 C          -1.4766   -1.1410    0.5110 C.3     1  UNL1        0.0338
      8 C          -2.3458    0.0995    0.8959 C.3     1  UNL1       -0.0105
      9 C           0.6486   -1.6133   -0.9764 C.3     1  UNL1        0.1402
     10 C          -1.3534   -0.2592   -1.8459 C.3     1  UNL1        0.0014
     11 C           0.2761    0.4677   -0.1099 C.ar    1  UNL1        0.0120
     12 C          -2.4132    0.7994   -1.5275 C.3     1  UNL1       -0.0317
     13 C          -1.4900    1.2904    1.4380 C.3     1  UNL1        0.0164
     14 C          -0.1425    1.4372    0.7827 C.ar    1  UNL1       -0.0345
     15 C           1.0035   -2.6668    0.1067 C.3     1  UNL1        0.1110
     16 C          -0.7263   -1.7572    1.6626 C.2     1  UNL1       -0.0761
     17 C           1.5703    0.3940   -0.5743 C.ar    1  UNL1        0.1666
     18 C           0.4131   -2.4376    1.4702 C.2     1  UNL1       -0.0558
     19 C          -4.1746    1.5986    0.0037 C.3     1  UNL1       -0.0436
     20 C           0.7737    2.4382    1.1106 C.ar    1  UNL1       -0.0544
     21 C           2.4891    1.3750   -0.2730 C.ar    1  UNL1        0.1618
     22 C           2.0743    2.4160    0.5676 C.ar    1  UNL1       -0.0160
     23 C           4.7283    0.6520    0.0711 C.3     1  UNL1        0.0790
     24 H          -2.1334   -1.9343    0.1291 H       1  UNL1        0.0408
     25 H          -3.0690   -0.1869    1.6721 H       1  UNL1        0.0859
     26 H           0.4351   -2.1560   -1.9063 H       1  UNL1        0.0772
     27 H          -1.8524   -1.1468   -2.2564 H       1  UNL1        0.0327
     28 H          -0.7036    0.1260   -2.6421 H       1  UNL1        0.0327
     29 H          -1.9587    1.7772   -1.3381 H       1  UNL1        0.0814
     30 H          -3.1151    0.9047   -2.3633 H       1  UNL1        0.0814
     31 H          -1.3030    1.0985    2.5032 H       1  UNL1        0.0368
     32 H          -2.0229    2.2419    1.3831 H       1  UNL1        0.0368
     33 H           0.6263   -3.6406   -0.2297 H       1  UNL1        0.0675
     34 H          -1.1447   -1.6851    2.6618 H       1  UNL1        0.0575
     35 H           0.8942   -2.9060    2.3243 H       1  UNL1        0.0596
     36 H          -4.6808    1.3681    0.9446 H       1  UNL1        0.0777
     37 H          -3.6028    2.5251    0.0672 H       1  UNL1        0.0777
     38 H          -4.8996    1.6646   -0.8135 H       1  UNL1        0.0777
     39 H           0.5005    3.2264    1.8070 H       1  UNL1        0.0622
     40 H           2.7729    3.2036    0.8406 H       1  UNL1        0.0655
     41 H           2.7733   -1.9575    0.5363 H       1  UNL1        0.2104
     42 H           5.7046    0.7499   -0.4113 H       1  UNL1        0.0660
     43 H           4.4839   -0.4109    0.1539 H       1  UNL1        0.0660
     44 H           4.7814    1.1061    1.0657 H       1  UNL1        0.0660
@<TRIPOS>UNITY_ATOM_ATTR
2 1
charge -1
5 1
charge 1
@<TRIPOS>BOND
     1     1     9    1
     2     1    17    1
     3     2     5    1
     4     3    15    1
     5     3    41    1
     6     4    21    1
     7     4    23    1
     8     5     8    1
     9     5    12    1
    10     5    19    1
    11     6     7    1
    12     6     9    1
    13     6    10    1
    14     6    11    1
    15     7     8    1
    16     7    16    1
    17     7    24    1
    18     8    13    1
    19     8    25    1
    20     9    15    1
    21     9    26    1
    22    10    12    1
    23    10    27    1
    24    10    28    1
    25    11    14   ar
    26    11    17   ar
    27    12    29    1
    28    12    30    1
    29    13    14    1
    30    13    31    1
    31    13    32    1
    32    14    20   ar
    33    15    18    1
    34    15    33    1
    35    16    18    2
    36    16    34    1
    37    17    21   ar
    38    18    35    1
    39    19    36    1
    40    19    37    1
    41    19    38    1
    42    20    22   ar
    43    20    39    1
    44    21    22   ar
    45    22    40    1
    46    23    42    1
    47    23    43    1
    48    23    44    1
@<TRIPOS>MOLECULE
71776762
 43 47 0 0 0
SMALL
GASTEIGER

@<TRIPOS>ATOM
      1 O          -1.5927   -1.0372    1.1888 O.3     1  UNL1       -0.4811
      2 O          -1.8297   -3.2227   -0.2207 O.3     1  UNL1       -0.3841
      3 O          -3.7490    0.7879    0.5182 O.3     1  UNL1       -0.4914
      4 N           3.2987    0.7132    0.4611 N.3     1  UNL1       -0.3015
      5 C           0.7585   -0.6767    0.6654 C.3     1  UNL1        0.0480
      6 C           1.8070   -1.0215   -0.4032 C.3     1  UNL1        0.0064
      7 C           2.5498    0.3088   -0.7533 C.3     1  UNL1        0.0213
      8 C          -0.3170   -1.7405    0.9876 C.3     1  UNL1        0.1399
      9 C           1.4692   -0.1454    1.9259 C.3     1  UNL1       -0.0263
     10 C          -0.1534    0.3674    0.1106 C.ar    1  UNL1        0.0116
     11 C           1.5896    1.4046   -1.3315 C.3     1  UNL1       -0.0110
     12 C           2.4454    1.0021    1.6181 C.3     1  UNL1       -0.0001
     13 C           0.1967    1.3821   -0.7619 C.ar    1  UNL1       -0.0383
     14 C          -0.4597   -2.8533   -0.0835 C.3     1  UNL1        0.1110
     15 C           1.1864   -1.7244   -1.5835 C.2     1  UNL1       -0.0799
     16 C          -1.4545    0.1347    0.4954 C.ar    1  UNL1        0.1666
     17 C           0.1370   -2.5458   -1.4313 C.2     1  UNL1       -0.0559
     18 C           4.2548    1.7894    0.2224 C.3     1  UNL1       -0.0124
     19 C          -0.8134    2.2631   -1.1519 C.ar    1  UNL1       -0.0546
     20 C          -2.4665    0.9950    0.1305 C.ar    1  UNL1        0.1618
     21 C          -2.1323    2.0799   -0.6901 C.ar    1  UNL1       -0.0160
     22 C          -4.7249    1.7391    0.0868 C.3     1  UNL1        0.0790
     23 H           2.5432   -1.7264    0.0122 H       1  UNL1        0.0368
     24 H           3.2945    0.0820   -1.5289 H       1  UNL1        0.0472
     25 H          -0.0990   -2.2308    1.9452 H       1  UNL1        0.0772
     26 H           2.0308   -0.9694    2.3866 H       1  UNL1        0.0287
     27 H           0.7460    0.1973    2.6772 H       1  UNL1        0.0287
     28 H           1.4978    1.2211   -2.4107 H       1  UNL1        0.0329
     29 H           2.0137    2.4080   -1.2262 H       1  UNL1        0.0329
     30 H           1.8878    1.9354    1.4712 H       1  UNL1        0.0427
     31 H           3.0706    1.1553    2.5068 H       1  UNL1        0.0427
     32 H           0.0658   -3.7430    0.2876 H       1  UNL1        0.0675
     33 H           1.6268   -1.5934   -2.5670 H       1  UNL1        0.0573
     34 H          -0.2503   -3.0689   -2.3010 H       1  UNL1        0.0596
     35 H          -0.5954    3.0802   -1.8346 H       1  UNL1        0.0622
     36 H           4.9051    1.5529   -0.6268 H       1  UNL1        0.0391
     37 H           4.9119    1.9098    1.0912 H       1  UNL1        0.0391
     38 H           3.7734    2.7538    0.0328 H       1  UNL1        0.0391
     39 H          -2.8600    2.8061   -1.0392 H       1  UNL1        0.0655
     40 H          -1.8780   -3.9684   -0.8432 H       1  UNL1        0.2104
     41 H          -4.8278    1.7390   -1.0035 H       1  UNL1        0.0660
     42 H          -4.5124    2.7382    0.4819 H       1  UNL1        0.0660
     43 H          -5.6882    1.4258    0.5020 H       1  UNL1        0.0660
@<TRIPOS>BOND
     1     1     8    1
     2     1    16    1
     3     2    14    1
     4     2    40    1
     5     3    20    1
     6     3    22    1
     7     4     7    1
     8     4    12    1
     9     4    18    1
    10     5     6    1
    11     5     8    1
    12     5     9    1
    13     5    10    1
    14     6     7    1
    15     6    15    1
    16     6    23    1
    17     7    11    1
    18     7    24    1
    19     8    14    1
    20     8    25    1
    21     9    12    1
    22     9    26    1
    23     9    27    1
    24    10    13   ar
    25    10    16   ar
    26    11    13    1
    27    11    28    1
    28    11    29    1
    29    12    30    1
    30    12    31    1
    31    13    19   ar
    32    14    17    1
    33    14    32    1
    34    15    17    2
    35    15    33    1
    36    16    20   ar
    37    17    34    1
    38    18    36    1
    39    18    37    1
    40    18    38    1
    41    19    21   ar
    42    19    35    1
    43    20    21   ar
    44    21    39    1
    45    22    41    1
    46    22    42    1
    47    22    43    1
@<TRIPOS>MOLECULE
14261327
 44 48 0 0 0
SMALL
GASTEIGER

@<TRIPOS>ATOM
      1 O           1.7301    0.7829    1.2458 O.3     1  UNL1       -0.4810
      2 O          -2.5164    1.9770    0.0458 O.3     1  UNL1       -0.3820
      3 O           2.1613    2.9215   -0.1903 O.3     1  UNL1       -0.3841
      4 O           3.7821   -1.1849    0.6496 O.3     1  UNL1       -0.4914
      5 N          -3.2248   -0.6884    0.4167 N.3     1  UNL1       -0.2990
      6 C          -0.6229    0.5731    0.6552 C.3     1  UNL1        0.0740
      7 C          -1.6193    0.9735   -0.4489 C.3     1  UNL1        0.1131
      8 C          -2.4390   -0.3204   -0.7896 C.3     1  UNL1        0.0474
      9 C           0.5125    1.5691    0.9936 C.3     1  UNL1        0.1423
     10 C          -1.3793    0.0904    1.9114 C.3     1  UNL1       -0.0239
     11 C           0.2355   -0.5335    0.1320 C.ar    1  UNL1        0.0141
     12 C          -1.5325   -1.4703   -1.3498 C.3     1  UNL1       -0.0086
     13 C          -2.4092   -1.0066    1.5924 C.3     1  UNL1        0.0000
     14 C          -0.1559   -1.5316   -0.7428 C.ar    1  UNL1       -0.0381
     15 C           0.7665    2.6434   -0.0969 C.3     1  UNL1        0.1111
     16 C          -0.9056    1.5959   -1.6253 C.2     1  UNL1       -0.0518
     17 C           1.5372   -0.3828    0.5543 C.ar    1  UNL1        0.1666
     18 C           0.1996    2.3387   -1.4588 C.2     1  UNL1       -0.0535
     19 C          -4.2282   -1.7180    0.1679 C.3     1  UNL1       -0.0124
     20 C           0.8055   -2.4793   -1.0975 C.ar    1  UNL1       -0.0546
     21 C           2.5007   -1.3107    0.2252 C.ar    1  UNL1        0.1618
     22 C           2.1198   -2.3781   -0.5982 C.ar    1  UNL1       -0.0160
     23 C           4.6824   -0.4610   -0.1918 C.3     1  UNL1        0.0790
     24 H          -3.1715   -0.0582   -1.5659 H       1  UNL1        0.0497
     25 H           0.3001    2.0941    1.9339 H       1  UNL1        0.0772
     26 H          -1.8989    0.9421    2.3697 H       1  UNL1        0.0288
     27 H          -0.6851   -0.2905    2.6719 H       1  UNL1        0.0288
     28 H          -1.4025   -1.2902   -2.4255 H       1  UNL1        0.0329
     29 H          -2.0179   -2.4468   -1.2592 H       1  UNL1        0.0329
     30 H          -1.8985   -1.9692    1.4651 H       1  UNL1        0.0427
     31 H          -3.0581   -1.1190    2.4700 H       1  UNL1        0.0427
     32 H           0.2879    3.5748    0.2329 H       1  UNL1        0.0675
     33 H          -1.3201    1.4676   -2.6206 H       1  UNL1        0.0599
     34 H           0.6561    2.8039   -2.3277 H       1  UNL1        0.0596
     35 H          -1.9913    2.6967    0.4350 H       1  UNL1        0.2107
     36 H          -3.7913   -2.7065   -0.0048 H       1  UNL1        0.0391
     37 H          -4.8505   -1.4575   -0.6951 H       1  UNL1        0.0391
     38 H          -4.9064   -1.7986    1.0251 H       1  UNL1        0.0391
     39 H           0.5558   -3.2865   -1.7808 H       1  UNL1        0.0622
     40 H           2.8539   -3.1253   -0.8913 H       1  UNL1        0.0655
     41 H           2.2807    3.6435   -0.8308 H       1  UNL1        0.2104
     42 H           4.3367    0.5688   -0.3271 H       1  UNL1        0.0660
     43 H           4.7800   -0.9566   -1.1628 H       1  UNL1        0.0660
     44 H           5.6624   -0.4415    0.2927 H       1  UNL1        0.0660
@<TRIPOS>BOND
     1     1     9    1
     2     1    17    1
     3     2     7    1
     4     2    35    1
     5     3    15    1
     6     3    41    1
     7     4    21    1
     8     4    23    1
     9     5     8    1
    10     5    13    1
    11     5    19    1
    12     6     7    1
    13     6     9    1
    14     6    10    1
    15     6    11    1
    16     7     8    1
    17     7    16    1
    18     8    12    1
    19     8    24    1
    20     9    15    1
    21     9    25    1
    22    10    13    1
    23    10    26    1
    24    10    27    1
    25    11    14   ar
    26    11    17   ar
    27    12    14    1
    28    12    28    1
    29    12    29    1
    30    13    30    1
    31    13    31    1
    32    14    20   ar
    33    15    18    1
    34    15    32    1
    35    16    18    2
    36    16    33    1
    37    17    21   ar
    38    18    34    1
    39    19    36    1
    40    19    37    1
    41    19    38    1
    42    20    22   ar
    43    20    39    1
    44    21    22   ar
    45    22    40    1
    46    23    42    1
    47    23    43    1
    48    23    44    1
@<TRIPOS>MOLECULE
5360241
 46 50 0 0 0
SMALL
GASTEIGER

@<TRIPOS>ATOM
      1 O          -1.6683    0.8418   -1.3706 O.3     1  UNL1       -0.4813
      2 O           2.7302    1.7202   -0.3472 O.3     1  UNL1       -0.3860
      3 O          -1.7180    2.1639    0.9968 O.3     1  UNL1       -0.3881
      4 O          -3.8592   -0.9767   -0.7006 O.3     1  UNL1       -0.4914
      5 N           3.0683   -1.0260   -0.4042 N.3     1  UNL1       -0.2993
      6 C           0.6279    0.5242   -0.6792 C.3     1  UNL1        0.0701
      7 C           1.7352    0.9135    0.3106 C.3     1  UNL1        0.0951
      8 C           2.3991   -0.4244    0.7803 C.3     1  UNL1        0.0438
      9 C          -0.4371    1.5802   -1.0417 C.3     1  UNL1        0.1384
     10 C           1.2628   -0.1524   -1.9206 C.3     1  UNL1       -0.0242
     11 C          -0.3092   -0.4550   -0.0634 C.ar    1  UNL1        0.0138
     12 C           1.2121    1.8049    1.4459 C.3     1  UNL1       -0.0191
     13 C          -0.7450    2.6321    0.0599 C.3     1  UNL1        0.0930
     14 C           1.3826   -1.3753    1.5045 C.3     1  UNL1       -0.0089
     15 C           0.4866    3.0333    0.8705 C.3     1  UNL1       -0.0207
     16 C           2.1773   -1.3317   -1.5298 C.3     1  UNL1        0.0000
     17 C           0.0051   -1.3965    0.8968 C.ar    1  UNL1       -0.0382
     18 C          -1.5814   -0.2808   -0.5735 C.ar    1  UNL1        0.1666
     19 C           3.9268   -2.1594   -0.0784 C.3     1  UNL1       -0.0124
     20 C          -1.0231   -2.2509    1.2937 C.ar    1  UNL1       -0.0546
     21 C          -2.6053   -1.1241   -0.2090 C.ar    1  UNL1        0.1618
     22 C          -2.3124   -2.1252    0.7293 C.ar    1  UNL1       -0.0160
     23 C          -4.7550   -0.1357    0.0301 C.3     1  UNL1        0.0790
     24 H           3.1961   -0.1709    1.4924 H       1  UNL1        0.0494
     25 H          -0.1192    2.1196   -1.9431 H       1  UNL1        0.0769
     26 H           1.8523    0.5866   -2.4785 H       1  UNL1        0.0288
     27 H           0.4991   -0.5182   -2.6195 H       1  UNL1        0.0288
     28 H           2.0536    2.1598    2.0541 H       1  UNL1        0.0294
     29 H           0.5409    1.2616    2.1193 H       1  UNL1        0.0294
     30 H          -1.1805    3.5226   -0.4080 H       1  UNL1        0.0630
     31 H           1.2755   -1.0215    2.5385 H       1  UNL1        0.0329
     32 H           1.7717   -2.3962    1.5696 H       1  UNL1        0.0329
     33 H           0.1783    3.6668    1.7119 H       1  UNL1        0.0292
     34 H           1.1626    3.6368    0.2556 H       1  UNL1        0.0292
     35 H           1.5641   -2.2144   -1.3092 H       1  UNL1        0.0427
     36 H           2.7782   -1.5916   -2.4104 H       1  UNL1        0.0427
     37 H           2.2840    2.3244   -0.9633 H       1  UNL1        0.2103
     38 H           4.5544   -2.4174   -0.9390 H       1  UNL1        0.0391
     39 H           3.3615   -3.0538    0.2016 H       1  UNL1        0.0391
     40 H           4.6109   -1.9099    0.7399 H       1  UNL1        0.0391
     41 H          -0.8446   -3.0118    2.0488 H       1  UNL1        0.0622
     42 H          -2.5518    2.0499    0.5106 H       1  UNL1        0.2099
     43 H          -3.0965   -2.8049    1.0561 H       1  UNL1        0.0655
     44 H          -4.4459    0.9097   -0.0560 H       1  UNL1        0.0660
     45 H          -4.7982   -0.4325    1.0829 H       1  UNL1        0.0660
     46 H          -5.7526   -0.2414   -0.4049 H       1  UNL1        0.0660
@<TRIPOS>BOND
     1     1     9    1
     2     1    18    1
     3     2     7    1
     4     2    37    1
     5     3    13    1
     6     3    42    1
     7     4    21    1
     8     4    23    1
     9     5     8    1
    10     5    16    1
    11     5    19    1
    12     6     7    1
    13     6     9    1
    14     6    10    1
    15     6    11    1
    16     7     8    1
    17     7    12    1
    18     8    14    1
    19     8    24    1
    20     9    13    1
    21     9    25    1
    22    10    16    1
    23    10    26    1
    24    10    27    1
    25    11    17   ar
    26    11    18   ar
    27    12    15    1
    28    12    28    1
    29    12    29    1
    30    13    15    1
    31    13    30    1
    32    14    17    1
    33    14    31    1
    34    14    32    1
    35    15    33    1
    36    15    34    1
    37    16    35    1
    38    16    36    1
    39    17    20   ar
    40    18    21   ar
    41    19    38    1
    42    19    39    1
    43    19    40    1
    44    20    22   ar
    45    20    41    1
    46    21    22   ar
    47    22    43    1
    48    23    44    1
    49    23    45    1
    50    23    46    1
@<TRIPOS>MOLECULE
5324289
 44 48 0 0 0
SMALL
GASTEIGER

@<TRIPOS>ATOM
      1 O          -1.3885    1.2918   -0.7887 O.3     1  UNL1       -0.4760
      2 O          -0.3074    3.7201    0.3071 O.2     1  UNL1       -0.4956
      3 O          -3.9740    0.0376   -0.3859 O.3     1  UNL1       -0.4914
      4 N           2.9222   -1.8716   -0.4179 N.3     1  UNL1       -0.2984
      5 C           0.7655    0.1552   -0.4835 C.3     1  UNL1        0.0673
      6 C           1.7093    0.0066    0.6783 C.2     1  UNL1       -0.0375
      7 C           2.1905   -1.4317    0.7967 C.3     1  UNL1        0.0366
      8 C           0.0563    1.5209   -0.6795 C.3     1  UNL1        0.1701
      9 C           1.4641   -0.3120   -1.7782 C.3     1  UNL1       -0.0227
     10 C          -0.4158   -0.6740   -0.1335 C.ar    1  UNL1        0.0154
     11 C           0.9609   -2.3875    1.0624 C.3     1  UNL1       -0.0078
     12 C           2.1331   -1.6919   -1.6476 C.3     1  UNL1        0.0004
     13 C          -0.3698   -1.8940    0.5286 C.ar    1  UNL1       -0.0377
     14 C          -1.5887   -0.0007   -0.3818 C.ar    1  UNL1        0.1674
     15 C           0.3622    2.5185    0.4163 C.2     1  UNL1        0.1388
     16 C           1.9438    1.0131    1.5315 C.2     1  UNL1       -0.0568
     17 C           1.2525    2.2774    1.3963 C.2     1  UNL1       -0.0204
     18 C          -1.5891   -2.5195    0.7870 C.ar    1  UNL1       -0.0545
     19 C           4.2361   -1.2353   -0.5235 C.3     1  UNL1       -0.0122
     20 C          -2.8042   -0.5994   -0.1311 C.ar    1  UNL1        0.1619
     21 C          -2.7972   -1.8825    0.4362 C.ar    1  UNL1       -0.0160
     22 C           0.4194    4.6274   -0.4978 C.3     1  UNL1        0.0785
     23 C          -5.1812   -0.6683   -0.0915 C.3     1  UNL1        0.0790
     24 H           2.8637   -1.5447    1.6568 H       1  UNL1        0.0512
     25 H           0.3618    1.9650   -1.6354 H       1  UNL1        0.0828
     26 H           2.2302    0.4241   -2.0575 H       1  UNL1        0.0290
     27 H           0.7498   -0.3498   -2.6112 H       1  UNL1        0.0290
     28 H           0.8532   -2.4787    2.1522 H       1  UNL1        0.0332
     29 H           1.1627   -3.3966    0.6821 H       1  UNL1        0.0332
     30 H           1.3612   -2.4701   -1.6862 H       1  UNL1        0.0427
     31 H           2.7545   -1.8807   -2.5323 H       1  UNL1        0.0427
     32 H           2.5897    0.8816    2.3926 H       1  UNL1        0.0619
     33 H           1.4553    3.0296    2.1524 H       1  UNL1        0.0652
     34 H          -1.6184   -3.4795    1.2952 H       1  UNL1        0.0622
     35 H           4.7960   -1.6553   -1.3667 H       1  UNL1        0.0391
     36 H           4.8333   -1.4360    0.3730 H       1  UNL1        0.0391
     37 H           4.1782   -0.1505   -0.6610 H       1  UNL1        0.0391
     38 H          -3.7043   -2.4292    0.6758 H       1  UNL1        0.0655
     39 H          -0.1229    5.5778   -0.5112 H       1  UNL1        0.0660
     40 H           0.4976    4.2747   -1.5315 H       1  UNL1        0.0660
     41 H           1.4178    4.8183   -0.0884 H       1  UNL1        0.0660
     42 H          -6.0144   -0.0165   -0.3732 H       1  UNL1        0.0660
     43 H          -5.2760   -0.8677    0.9812 H       1  UNL1        0.0660
     44 H          -5.2683   -1.5807   -0.6910 H       1  UNL1        0.0660
@<TRIPOS>BOND
     1     1     8    1
     2     1    14    1
     3     2    15    1
     4     2    22    1
     5     3    20    1
     6     3    23    1
     7     4     7    1
     8     4    12    1
     9     4    19    1
    10     5     6    1
    11     5     8    1
    12     5     9    1
    13     5    10    1
    14     6     7    1
    15     6    16    2
    16     7    11    1
    17     7    24    1
    18     8    15    1
    19     8    25    1
    20     9    12    1
    21     9    26    1
    22     9    27    1
    23    10    13   ar
    24    10    14   ar
    25    11    13    1
    26    11    28    1
    27    11    29    1
    28    12    30    1
    29    12    31    1
    30    13    18   ar
    31    14    20   ar
    32    15    17    2
    33    16    17    1
    34    16    32    1
    35    17    33    1
    36    18    21   ar
    37    18    34    1
    38    19    35    1
    39    19    36    1
    40    19    37    1
    41    20    21   ar
    42    21    38    1
    43    22    39    1
    44    22    40    1
    45    22    41    1
    46    23    42    1
    47    23    43    1
    48    23    44    1
@<TRIPOS>MOLECULE
5288826
 40 44 0 0 0
SMALL
GASTEIGER

@<TRIPOS>ATOM
      1 O          -1.9930   -0.4740    1.2005 O.3     1  UNL1       -0.4811
      2 O          -2.7826   -2.5168   -0.2218 O.3     1  UNL1       -0.3841
      3 O          -3.6220    1.8421    0.5579 O.3     1  UNL1       -0.5033
      4 N           3.1777   -0.0101    0.4474 N.3     1  UNL1       -0.3015
      5 C           0.3699   -0.7149    0.6616 C.3     1  UNL1        0.0480
      6 C           1.2913   -1.3046   -0.4170 C.3     1  UNL1        0.0064
      7 C           2.3441   -0.2023   -0.7640 C.3     1  UNL1        0.0213
      8 C          -0.9377   -1.4750    0.9848 C.3     1  UNL1        0.1399
      9 C           1.1988   -0.3907    1.9201 C.3     1  UNL1       -0.0263
     10 C          -0.2516    0.5302    0.1205 C.ar    1  UNL1        0.0116
     11 C           1.6887    1.1052   -1.3279 C.3     1  UNL1       -0.0110
     12 C           2.4315    0.4754    1.6126 C.3     1  UNL1       -0.0001
     13 C           0.3384    1.4306   -0.7480 C.ar    1  UNL1       -0.0383
     14 C          -1.3631   -2.5067   -0.0924 C.3     1  UNL1        0.1110
     15 C           0.5066   -1.8183   -1.5971 C.2     1  UNL1       -0.0799
     16 C          -1.5672    0.6306    0.5136 C.ar    1  UNL1        0.1663
     17 C          -0.7155   -2.3492   -1.4425 C.2     1  UNL1       -0.0559
     18 C           4.3733    0.7916    0.2084 C.3     1  UNL1       -0.0124
     19 C          -0.4184    2.5415   -1.1246 C.ar    1  UNL1       -0.0546
     20 C          -2.3310    1.7217    0.1620 C.ar    1  UNL1        0.1588
     21 C          -1.7382    2.6936   -0.6541 C.ar    1  UNL1       -0.0162
     22 H           1.8278   -2.1759   -0.0118 H       1  UNL1        0.0368
     23 H           3.0029   -0.6035   -1.5465 H       1  UNL1        0.0472
     24 H          -0.8451   -2.0128    1.9373 H       1  UNL1        0.0772
     25 H           1.5366   -1.3335    2.3712 H       1  UNL1        0.0287
     26 H           0.5899    0.1174    2.6790 H       1  UNL1        0.0287
     27 H           1.5474    0.9596   -2.4075 H       1  UNL1        0.0329
     28 H           2.3530    1.9680   -1.2194 H       1  UNL1        0.0329
     29 H           2.1271    1.5205    1.4760 H       1  UNL1        0.0427
     30 H           3.0801    0.4584    2.4975 H       1  UNL1        0.0427
     31 H          -1.0772   -3.5067    0.2593 H       1  UNL1        0.0675
     32 H           0.9601   -1.7947   -2.5831 H       1  UNL1        0.0573
     33 H          -1.2300   -2.7505   -2.3109 H       1  UNL1        0.0596
     34 H           4.1500    1.8479    0.0287 H       1  UNL1        0.0391
     35 H           4.9380    0.4055   -0.6472 H       1  UNL1        0.0391
     36 H           5.0444    0.7352    1.0730 H       1  UNL1        0.0391
     37 H          -0.0062    3.2824   -1.8043 H       1  UNL1        0.0622
     38 H          -2.3121    3.5638   -0.9645 H       1  UNL1        0.0655
     39 H          -3.1557   -2.6446    0.6672 H       1  UNL1        0.2104
     40 H          -3.8483    1.0686    1.1031 H       1  UNL1        0.2923
@<TRIPOS>BOND
     1     1     8    1
     2     1    16    1
     3     2    14    1
     4     2    39    1
     5     3    20    1
     6     3    40    1
     7     4     7    1
     8     4    12    1
     9     4    18    1
    10     5     6    1
    11     5     8    1
    12     5     9    1
    13     5    10    1
    14     6     7    1
    15     6    15    1
    16     6    22    1
    17     7    11    1
    18     7    23    1
    19     8    14    1
    20     8    24    1
    21     9    12    1
    22     9    25    1
    23     9    26    1
    24    10    13   ar
    25    10    16   ar
    26    11    13    1
    27    11    27    1
    28    11    28    1
    29    12    29    1
    30    12    30    1
    31    13    19   ar
    32    14    17    1
    33    14    31    1
    34    15    17    2
    35    15    32    1
    36    16    20   ar
    37    17    33    1
    38    18    34    1
    39    18    35    1
    40    18    36    1
    41    19    21   ar
    42    19    37    1
    43    20    21   ar
    44    21    38    1
@<TRIPOS>MOLECULE
5486550
 48 52 0 0 0
SMALL
GASTEIGER

@<TRIPOS>ATOM
      1 O          -1.1491    0.6373    1.4216 O.3     1  UNL1       -0.4799
      2 O          -2.9034   -0.9844    0.3671 O.3     1  UNL1       -0.4536
      3 O          -1.6788    3.3499    0.5316 O.3     1  UNL1       -0.4914
      4 O          -3.7570   -2.8443   -0.7044 O.2     1  UNL1       -0.2511
      5 N           3.5878   -1.3296    0.3205 N.3     1  UNL1       -0.3015
      6 C           0.7971   -0.6855    0.7939 C.3     1  UNL1        0.0491
      7 C           1.2409   -1.7375   -0.2341 C.3     1  UNL1        0.0064
      8 C           2.6187   -1.2630   -0.8002 C.3     1  UNL1        0.0213
      9 C          -0.6632   -0.7452    1.2996 C.3     1  UNL1        0.1509
     10 C           1.8246   -0.6275    1.9416 C.3     1  UNL1       -0.0263
     11 C           0.7170    0.6383    0.1082 C.ar    1  UNL1        0.0116
     12 C           2.5326    0.1290   -1.5159 C.3     1  UNL1       -0.0110
     13 C           3.2657   -0.4387    1.4397 C.3     1  UNL1       -0.0001
     14 C           1.5332    1.0817   -0.9168 C.ar    1  UNL1       -0.0383
     15 C          -1.6147   -1.5918    0.4142 C.3     1  UNL1        0.1587
     16 C           0.1802   -1.9750   -1.2784 C.2     1  UNL1       -0.0788
     17 C          -0.3704    1.3551    0.5546 C.ar    1  UNL1        0.1666
     18 C          -1.1241   -1.8873   -0.9782 C.2     1  UNL1       -0.0439
     19 C           4.9758   -1.1739   -0.1020 C.3     1  UNL1       -0.0124
     20 C           1.2931    2.3643   -1.4124 C.ar    1  UNL1       -0.0546
     21 C          -0.6224    2.6260    0.0869 C.ar    1  UNL1        0.1618
     22 C           0.2333    3.1374   -0.8972 C.ar    1  UNL1       -0.0160
     23 C          -3.8861   -1.7267   -0.2233 C.2     1  UNL1        0.3046
     24 C          -1.8530    4.6584   -0.0163 C.3     1  UNL1        0.0790
     25 C          -5.1778   -0.9670   -0.2004 C.3     1  UNL1        0.0333
     26 H           1.3909   -2.7062    0.2664 H       1  UNL1        0.0368
     27 H           2.9436   -1.9982   -1.5494 H       1  UNL1        0.0472
     28 H          -0.7024   -1.1588    2.3157 H       1  UNL1        0.0783
     29 H           1.7713   -1.5665    2.5091 H       1  UNL1        0.0287
     30 H           1.5879    0.1780    2.6487 H       1  UNL1        0.0287
     31 H           2.2180   -0.0560   -2.5520 H       1  UNL1        0.0329
     32 H           3.5124    0.6130   -1.5748 H       1  UNL1        0.0329
     33 H           3.4295    0.6109    1.1655 H       1  UNL1        0.0427
     34 H           3.9409   -0.6449    2.2797 H       1  UNL1        0.0427
     35 H          -1.7235   -2.5660    0.9134 H       1  UNL1        0.0817
     36 H           0.4833   -2.2461   -2.2850 H       1  UNL1        0.0574
     37 H          -1.8177   -2.0792   -1.7899 H       1  UNL1        0.0607
     38 H           5.2120   -0.1552   -0.4250 H       1  UNL1        0.0391
     39 H           5.2146   -1.8619   -0.9204 H       1  UNL1        0.0391
     40 H           5.6518   -1.4275    0.7225 H       1  UNL1        0.0391
     41 H           1.9045    2.7651   -2.2166 H       1  UNL1        0.0622
     42 H           0.1112    4.1231   -1.3356 H       1  UNL1        0.0655
     43 H          -1.0017    5.3069    0.2169 H       1  UNL1        0.0660
     44 H          -2.7337    5.0964    0.4645 H       1  UNL1        0.0660
     45 H          -2.0590    4.6171   -1.0911 H       1  UNL1        0.0660
     46 H          -5.0663   -0.0308   -0.7532 H       1  UNL1        0.0342
     47 H          -5.4741   -0.7714    0.8331 H       1  UNL1        0.0342
     48 H          -5.9585   -1.5641   -0.6804 H       1  UNL1        0.0342
@<TRIPOS>BOND
     1     1     9    1
     2     1    17    1
     3     2    15    1
     4     2    23    1
     5     3    21    1
     6     3    24    1
     7     4    23    2
     8     5     8    1
     9     5    13    1
    10     5    19    1
    11     6     7    1
    12     6     9    1
    13     6    10    1
    14     6    11    1
    15     7     8    1
    16     7    16    1
    17     7    26    1
    18     8    12    1
    19     8    27    1
    20     9    15    1
    21     9    28    1
    22    10    13    1
    23    10    29    1
    24    10    30    1
    25    11    14   ar
    26    11    17   ar
    27    12    14    1
    28    12    31    1
    29    12    32    1
    30    13    33    1
    31    13    34    1
    32    14    20   ar
    33    15    18    1
    34    15    35    1
    35    16    18    2
    36    16    36    1
    37    17    21   ar
    38    18    37    1
    39    19    38    1
    40    19    39    1
    41    19    40    1
    42    20    22   ar
    43    20    41    1
    44    21    22   ar
    45    22    42    1
    46    23    25    1
    47    24    43    1
    48    24    44    1
    49    24    45    1
    50    25    46    1
    51    25    47    1
    52    25    48    1
@<TRIPOS>MOLECULE
5486611
 43 47 0 0 0
SMALL
GASTEIGER

@<TRIPOS>ATOM
      1 O           1.6451   -1.1802   -1.2466 O.3     1  UNL1       -0.4800
      2 O          -2.8988   -2.0823    1.5333 O.3     1  UNL1       -0.3874
      3 O           4.0870   -0.2134    0.0185 O.3     1  UNL1       -0.4914
      4 N          -2.6304    1.7902   -0.4489 N.3     1  UNL1       -0.3017
      5 C          -0.5723   -0.2899   -0.8151 C.3     1  UNL1        0.0481
      6 C          -1.8184   -0.5492    0.0341 C.3     1  UNL1        0.0180
      7 C          -2.2507    0.8339    0.6236 C.3     1  UNL1        0.0205
      8 C           0.2162   -1.5243   -1.2964 C.3     1  UNL1        0.1287
      9 C          -0.9345    0.6695   -1.9681 C.3     1  UNL1       -0.0263
     10 C           0.4834    0.3078    0.0446 C.ar    1  UNL1        0.0116
     11 C          -1.6085   -1.6411    1.1063 C.3     1  UNL1        0.0786
     12 C          -1.1366    1.4818    1.5255 C.3     1  UNL1       -0.0112
     13 C          -1.5888    1.9694   -1.4710 C.3     1  UNL1       -0.0002
     14 C           0.2776    1.1768    1.1006 C.ar    1  UNL1       -0.0383
     15 C           1.7223   -0.1933   -0.2936 C.ar    1  UNL1        0.1669
     16 C          -0.0139   -2.7671   -0.4734 C.2     1  UNL1       -0.0447
     17 C          -0.8255   -2.8188    0.5931 C.2     1  UNL1       -0.0560
     18 C          -3.9219    1.4671   -1.0542 C.3     1  UNL1       -0.0125
     19 C           1.4137    1.6354    1.7672 C.ar    1  UNL1       -0.0546
     20 C           2.8570    0.2531    0.3451 C.ar    1  UNL1        0.1618
     21 C           2.6946    1.1888    1.3773 C.ar    1  UNL1       -0.0160
     22 C           4.8032    0.4860   -1.0020 C.3     1  UNL1        0.0790
     23 H          -2.6192   -0.9131   -0.6252 H       1  UNL1        0.0354
     24 H          -3.1265    0.6969    1.2717 H       1  UNL1        0.0469
     25 H          -0.0257   -1.7616   -2.3395 H       1  UNL1        0.0787
     26 H          -1.6267    0.1608   -2.6517 H       1  UNL1        0.0287
     27 H          -0.0472    0.9279   -2.5606 H       1  UNL1        0.0287
     28 H          -1.1017   -1.2557    1.9960 H       1  UNL1        0.0641
     29 H          -1.2634    1.0903    2.5436 H       1  UNL1        0.0329
     30 H          -1.2789    2.5679    1.5892 H       1  UNL1        0.0329
     31 H          -0.8124    2.6258   -1.0593 H       1  UNL1        0.0427
     32 H          -1.9834    2.5275   -2.3299 H       1  UNL1        0.0427
     33 H           0.5255   -3.6639   -0.7663 H       1  UNL1        0.0606
     34 H          -0.9023   -3.7524    1.1443 H       1  UNL1        0.0596
     35 H          -3.9037    0.5473   -1.6468 H       1  UNL1        0.0391
     36 H          -4.2449    2.2823   -1.7116 H       1  UNL1        0.0391
     37 H          -4.6972    1.3680   -0.2865 H       1  UNL1        0.0391
     38 H           1.3204    2.3208    2.6052 H       1  UNL1        0.0622
     39 H          -3.3383   -2.5115    0.7792 H       1  UNL1        0.2102
     40 H           3.5657    1.5566    1.9153 H       1  UNL1        0.0655
     41 H           4.2505    0.4551   -1.9462 H       1  UNL1        0.0660
     42 H           5.7681   -0.0084   -1.1430 H       1  UNL1        0.0660
     43 H           4.9796    1.5237   -0.7016 H       1  UNL1        0.0660
@<TRIPOS>BOND
     1     1     8    1
     2     1    15    1
     3     2    11    1
     4     2    39    1
     5     3    20    1
     6     3    22    1
     7     4     7    1
     8     4    13    1
     9     4    18    1
    10     5     6    1
    11     5     8    1
    12     5     9    1
    13     5    10    1
    14     6     7    1
    15     6    11    1
    16     6    23    1
    17     7    12    1
    18     7    24    1
    19     8    16    1
    20     8    25    1
    21     9    13    1
    22     9    26    1
    23     9    27    1
    24    10    14   ar
    25    10    15   ar
    26    11    17    1
    27    11    28    1
    28    12    14    1
    29    12    29    1
    30    12    30    1
    31    13    31    1
    32    13    32    1
    33    14    19   ar
    34    15    20   ar
    35    16    17    2
    36    16    33    1
    37    17    34    1
    38    18    35    1
    39    18    36    1
    40    18    37    1
    41    19    21   ar
    42    19    38    1
    43    20    21   ar
    44    21    40    1
    45    22    41    1
    46    22    42    1
    47    22    43    1
@<TRIPOS>MOLECULE
1983
 20 20 0 0 0
SMALL
GASTEIGER

@<TRIPOS>ATOM
      1 O           3.8509    0.4516    0.0012 O.3     1  UNL1       -0.5068
      2 O          -2.5999    1.4041   -0.0018 O.2     1  UNL1       -0.2758
      3 N          -1.5705   -0.7171    0.0001 N.am    1  UNL1       -0.2857
      4 C          -0.2066   -0.4231   -0.0002 C.ar    1  UNL1        0.0336
      5 C           0.2205    0.9047    0.0004 C.ar    1  UNL1       -0.0370
      6 C           0.7298   -1.4570   -0.0007 C.ar    1  UNL1       -0.0370
      7 C           1.5841    1.1986    0.0002 C.ar    1  UNL1       -0.0184
      8 C           2.0933   -1.1629   -0.0007 C.ar    1  UNL1       -0.0184
      9 C           2.5204    0.1648   -0.0003 C.ar    1  UNL1        0.1170
     10 C          -2.6485    0.1782    0.0009 C.2     1  UNL1        0.2141
     11 C          -3.9735   -0.5420    0.0010 C.3     1  UNL1        0.0125
     12 H          -0.4436    1.7577    0.0012 H       1  UNL1        0.0637
     13 H           0.4113   -2.4963   -0.0010 H       1  UNL1        0.0637
     14 H          -1.8010   -1.7086    0.0001 H       1  UNL1        0.1548
     15 H           1.9053    2.2370    0.0009 H       1  UNL1        0.0655
     16 H           2.8180   -1.9726   -0.0008 H       1  UNL1        0.0655
     17 H          -4.0655   -1.1463   -0.9058 H       1  UNL1        0.0323
     18 H          -4.7904    0.1844    0.0288 H       1  UNL1        0.0323
     19 H          -4.0445   -1.1886    0.8802 H       1  UNL1        0.0323
     20 H           3.9650    1.4176    0.0017 H       1  UNL1        0.2921
@<TRIPOS>BOND
     1     1     9    1
     2     1    20    1
     3     2    10    2
     4     3     4    1
     5     3    10   am
     6     3    14    1
     7     4     5   ar
     8     4     6   ar
     9     5     7   ar
    10     5    12    1
    11     6     8   ar
    12     6    13    1
    13     7     9   ar
    14     7    15    1
    15     8     9   ar
    16     8    16    1
    17    10    11    1
    18    11    17    1
    19    11    18    1
    20    11    19    1
@<TRIPOS>MOLECULE
9925873
 40 44 0 0 0
SMALL
GASTEIGER

@<TRIPOS>ATOM
      1 O           1.3843    0.8988    1.2129 O.3     1  UNL1       -0.4811
      2 O           1.6352    3.0641   -0.2280 O.3     1  UNL1       -0.3841
      3 O           3.5440   -0.9454    0.6118 O.3     1  UNL1       -0.4914
      4 N          -3.4838   -0.9097    0.4453 N.3     1  UNL1       -0.3123
      5 C          -0.9623    0.5297    0.6730 C.3     1  UNL1        0.0480
      6 C          -1.9938    0.8510   -0.4183 C.3     1  UNL1        0.0062
      7 C           0.1111    1.5983    0.9853 C.3     1  UNL1        0.1399
      8 C          -2.7243   -0.4835   -0.7482 C.3     1  UNL1        0.0188
      9 C          -0.0462   -0.5310    0.1554 C.ar    1  UNL1        0.0116
     10 C          -1.6990    0.0342    1.9330 C.3     1  UNL1       -0.0265
     11 C          -1.7785   -1.6111   -1.2711 C.3     1  UNL1       -0.0112
     12 C          -0.3886   -1.5693   -0.6938 C.ar    1  UNL1       -0.0383
     13 C          -2.6590   -1.1263    1.6347 C.3     1  UNL1       -0.0029
     14 C           0.2654    2.6895   -0.1061 C.3     1  UNL1        0.1110
     15 C          -1.3547    1.5246   -1.6054 C.2     1  UNL1       -0.0799
     16 C           1.2510   -0.2899    0.5479 C.ar    1  UNL1        0.1666
     17 C          -0.3076    2.3497   -1.4563 C.2     1  UNL1       -0.0559
     18 C           0.6239   -2.4623   -1.0485 C.ar    1  UNL1       -0.0546
     19 C           2.2653   -1.1612    0.2163 C.ar    1  UNL1        0.1618
     20 C           1.9381   -2.2676   -0.5784 C.ar    1  UNL1       -0.0160
     21 C           4.3795   -0.1826   -0.2614 C.3     1  UNL1        0.0790
     22 H          -2.7375    1.5632   -0.0302 H       1  UNL1        0.0368
     23 H          -0.1156    2.1078    1.9308 H       1  UNL1        0.0772
     24 H          -3.4728   -0.2944   -1.5286 H       1  UNL1        0.0469
     25 H          -2.2751    0.8682    2.3558 H       1  UNL1        0.0287
     26 H          -0.9912   -0.2824    2.7098 H       1  UNL1        0.0287
     27 H          -1.6837   -1.4885   -2.3582 H       1  UNL1        0.0329
     28 H          -2.2239   -2.5991   -1.1019 H       1  UNL1        0.0329
     29 H          -2.0978   -2.0625    1.5345 H       1  UNL1        0.0424
     30 H          -3.3210   -1.2659    2.4970 H       1  UNL1        0.0424
     31 H          -0.2679    3.5868    0.2320 H       1  UNL1        0.0675
     32 H          -4.0021   -1.7624    0.2354 H       1  UNL1        0.1222
     33 H          -1.7787    1.3687   -2.5925 H       1  UNL1        0.0573
     34 H           0.0970    2.8525   -2.3300 H       1  UNL1        0.0596
     35 H           0.4127   -3.2981   -1.7101 H       1  UNL1        0.0622
     36 H           2.7126   -2.9727   -0.8714 H       1  UNL1        0.0655
     37 H           2.1278    2.2849   -0.5370 H       1  UNL1        0.2104
     38 H           5.3764   -0.1247    0.1840 H       1  UNL1        0.0660
     39 H           3.9875    0.8323   -0.3763 H       1  UNL1        0.0660
     40 H           4.4593   -0.6691   -1.2386 H       1  UNL1        0.0660
@<TRIPOS>BOND
     1     1     7    1
     2     1    16    1
     3     2    14    1
     4     2    37    1
     5     3    19    1
     6     3    21    1
     7     4     8    1
     8     4    13    1
     9     4    32    1
    10     5     6    1
    11     5     7    1
    12     5     9    1
    13     5    10    1
    14     6     8    1
    15     6    15    1
    16     6    22    1
    17     7    14    1
    18     7    23    1
    19     8    11    1
    20     8    24    1
    21     9    12   ar
    22     9    16   ar
    23    10    13    1
    24    10    25    1
    25    10    26    1
    26    11    12    1
    27    11    27    1
    28    11    28    1
    29    12    18   ar
    30    13    29    1
    31    13    30    1
    32    14    17    1
    33    14    31    1
    34    15    17    2
    35    15    33    1
    36    16    19   ar
    37    17    34    1
    38    18    20   ar
    39    18    35    1
    40    19    20   ar
    41    20    36    1
    42    21    38    1
    43    21    39    1
    44    21    40    1
@<TRIPOS>MOLECULE
5463872
 54 59 0 0 0
SMALL
GASTEIGER

@<TRIPOS>ATOM
      1 O          -0.0137    0.7010    1.4324 O.3     1  UNL1       -0.4799
      2 O          -1.8171   -0.9167    0.4574 O.3     1  UNL1       -0.4499
      3 O          -0.5115    3.3970    0.4759 O.3     1  UNL1       -0.4914
      4 O          -2.7279   -2.7799   -0.5414 O.2     1  UNL1       -0.2449
      5 N           4.6646   -1.3836    0.2984 N.3     1  UNL1       -0.3015
      6 N          -5.2492    1.1304    0.4964 N.ar    1  UNL1       -0.2624
      7 C           1.8958   -0.6748    0.8059 C.3     1  UNL1        0.0491
      8 C           2.3006   -1.7632   -0.2000 C.3     1  UNL1        0.0064
      9 C           3.6755   -1.3305   -0.8052 C.3     1  UNL1        0.0213
     10 C           0.4446   -0.6932    1.3405 C.3     1  UNL1        0.1509
     11 C           2.9461   -0.6038    1.9319 C.3     1  UNL1       -0.0263
     12 C           1.8263    0.6306    0.0845 C.ar    1  UNL1        0.0116
     13 C           3.6006    0.0423   -1.5584 C.3     1  UNL1       -0.0110
     14 C           4.3804   -0.4559    1.3978 C.3     1  UNL1       -0.0001
     15 C           2.6304    1.0298   -0.9678 C.ar    1  UNL1       -0.0383
     16 C          -0.5389   -1.5464    0.4975 C.3     1  UNL1        0.1590
     17 C           1.2157   -2.0102   -1.2171 C.2     1  UNL1       -0.0788
     18 C           0.7609    1.3796    0.5308 C.ar    1  UNL1        0.1666
     19 C          -0.0808   -1.8899   -0.8950 C.2     1  UNL1       -0.0439
     20 C           6.0468   -1.2657   -0.1543 C.3     1  UNL1       -0.0124
     21 C           2.4039    2.3023   -1.4950 C.ar    1  UNL1       -0.0546
     22 C           0.5228    2.6415    0.0321 C.ar    1  UNL1        0.1618
     23 C           1.3684    3.1091   -0.9820 C.ar    1  UNL1       -0.0160
     24 C          -2.8238   -1.6493   -0.0897 C.2     1  UNL1        0.3413
     25 C          -0.6727    4.6927   -0.1055 C.3     1  UNL1        0.0790
     26 C          -4.0961   -0.8842   -0.0732 C.ar    1  UNL1        0.0770
     27 C          -5.2406   -1.4477   -0.5839 C.ar    1  UNL1       -0.0449
     28 C          -4.1253    0.3805    0.4508 C.ar    1  UNL1        0.0415
     29 C          -6.4171   -0.7071   -0.5547 C.ar    1  UNL1       -0.0428
     30 C          -6.3688    0.5656   -0.0088 C.ar    1  UNL1        0.0276
     31 H           2.4426   -2.7202    0.3248 H       1  UNL1        0.0368
     32 H           3.9725   -2.0924   -1.5393 H       1  UNL1        0.0472
     33 H           0.4175   -1.0773    2.3685 H       1  UNL1        0.0783
     34 H           2.8868   -1.5254    2.5267 H       1  UNL1        0.0287
     35 H           2.7377    0.2254    2.6202 H       1  UNL1        0.0287
     36 H           3.2628   -0.1658   -2.5827 H       1  UNL1        0.0329
     37 H           4.5877    0.5061   -1.6494 H       1  UNL1        0.0329
     38 H           4.5578    0.5823    1.0909 H       1  UNL1        0.0427
     39 H           5.0679   -0.6510    2.2304 H       1  UNL1        0.0427
     40 H          -0.6557   -2.5040    1.0260 H       1  UNL1        0.0817
     41 H           1.4943   -2.3152   -2.2211 H       1  UNL1        0.0574
     42 H          -0.7935   -2.0921   -1.6873 H       1  UNL1        0.0607
     43 H           6.2951   -0.2610   -0.5104 H       1  UNL1        0.0391
     44 H           6.2573   -1.9807   -0.9572 H       1  UNL1        0.0391
     45 H           6.7340   -1.5086    0.6642 H       1  UNL1        0.0391
     46 H           3.0068    2.6689   -2.3216 H       1  UNL1        0.0622
     47 H           1.2557    4.0842   -1.4459 H       1  UNL1        0.0655
     48 H           0.1945    5.3315    0.0930 H       1  UNL1        0.0660
     49 H          -1.5359    5.1600    0.3792 H       1  UNL1        0.0660
     50 H          -0.9001    4.6250   -1.1746 H       1  UNL1        0.0660
     51 H          -5.2526   -2.4475   -1.0066 H       1  UNL1        0.0627
     52 H          -3.2595    0.8827    0.8677 H       1  UNL1        0.0838
     53 H          -7.3426   -1.1129   -0.9468 H       1  UNL1        0.0633
     54 H          -7.2591    1.1841    0.0375 H       1  UNL1        0.0829
@<TRIPOS>BOND
     1     1    10    1
     2     1    18    1
     3     2    16    1
     4     2    24    1
     5     3    22    1
     6     3    25    1
     7     4    24    2
     8     5     9    1
     9     5    14    1
    10     5    20    1
    11     6    28   ar
    12     6    30   ar
    13     7     8    1
    14     7    10    1
    15     7    11    1
    16     7    12    1
    17     8     9    1
    18     8    17    1
    19     8    31    1
    20     9    13    1
    21     9    32    1
    22    10    16    1
    23    10    33    1
    24    11    14    1
    25    11    34    1
    26    11    35    1
    27    12    15   ar
    28    12    18   ar
    29    13    15    1
    30    13    36    1
    31    13    37    1
    32    14    38    1
    33    14    39    1
    34    15    21   ar
    35    16    19    1
    36    16    40    1
    37    17    19    2
    38    17    41    1
    39    18    22   ar
    40    19    42    1
    41    20    43    1
    42    20    44    1
    43    20    45    1
    44    21    23   ar
    45    21    46    1
    46    22    23   ar
    47    23    47    1
    48    24    26    1
    49    25    48    1
    50    25    49    1
    51    25    50    1
    52    26    27   ar
    53    26    28   ar
    54    27    29   ar
    55    27    51    1
    56    28    52    1
    57    29    30   ar
    58    29    53    1
    59    30    54    1
@<TRIPOS>MOLECULE
101685
 43 47 0 0 0
SMALL
GASTEIGER

@<TRIPOS>ATOM
      1 O          -1.7426    0.8961   -1.0460 O.3     1  UNL1       -0.4811
      2 O          -1.4772    3.6830    0.0117 O.3     1  UNL1       -0.3878
      3 O          -3.8082   -1.1040   -0.5648 O.3     1  UNL1       -0.4914
      4 N           3.2714   -0.6222   -0.4243 N.3     1  UNL1       -0.2984
      5 C           0.6193    0.5795   -0.5355 C.3     1  UNL1        0.0624
      6 C          -0.4892    1.6230   -0.7856 C.3     1  UNL1        0.1397
      7 C           1.6032    0.8349    0.5694 C.2     1  UNL1       -0.0418
      8 C           2.4724   -0.3936    0.8040 C.3     1  UNL1        0.0363
      9 C           1.3923    0.2286   -1.8249 C.3     1  UNL1       -0.0231
     10 C          -0.2437   -0.5457   -0.0971 C.ar    1  UNL1        0.0150
     11 C          -0.6931    2.5627    0.4180 C.3     1  UNL1        0.0965
     12 C           1.5693   -1.6101    1.2479 C.3     1  UNL1       -0.0078
     13 C           2.4490   -0.8738   -1.6150 C.3     1  UNL1        0.0004
     14 C           0.1675   -1.6195    0.6762 C.ar    1  UNL1       -0.0377
     15 C          -1.5522   -0.3351   -0.4700 C.ar    1  UNL1        0.1668
     16 C           1.6308    1.9888    1.2498 C.2     1  UNL1       -0.0798
     17 C           0.6363    3.0816    0.9844 C.3     1  UNL1       -0.0048
     18 C          -0.7951   -2.5835    0.9722 C.ar    1  UNL1       -0.0545
     19 C          -2.5159   -1.2785   -0.1941 C.ar    1  UNL1        0.1618
     20 C           4.3017   -1.6425   -0.2623 C.3     1  UNL1       -0.0122
     21 C          -2.1228   -2.4206    0.5208 C.ar    1  UNL1       -0.0160
     22 C          -4.6733   -0.4489    0.3652 C.3     1  UNL1        0.0790
     23 H          -0.2834    2.2168   -1.6852 H       1  UNL1        0.0771
     24 H           3.1751   -0.1830    1.6211 H       1  UNL1        0.0512
     25 H           1.9012    1.1313   -2.1910 H       1  UNL1        0.0290
     26 H           0.7076   -0.0888   -2.6222 H       1  UNL1        0.0290
     27 H          -1.2614    2.0559    1.2074 H       1  UNL1        0.0634
     28 H           1.4641   -1.5496    2.3400 H       1  UNL1        0.0332
     29 H           2.0550   -2.5678    1.0368 H       1  UNL1        0.0332
     30 H           1.9595   -1.8539   -1.5574 H       1  UNL1        0.0427
     31 H           3.0889   -0.8991   -2.5059 H       1  UNL1        0.0427
     32 H           2.3642    2.1449    2.0346 H       1  UNL1        0.0573
     33 H           0.4277    3.6138    1.9208 H       1  UNL1        0.0334
     34 H           1.0856    3.8251    0.3143 H       1  UNL1        0.0334
     35 H          -0.5390   -3.4508    1.5745 H       1  UNL1        0.0622
     36 H           4.9743   -1.6400   -1.1275 H       1  UNL1        0.0391
     37 H           3.8912   -2.6520   -0.1620 H       1  UNL1        0.0391
     38 H           4.9240   -1.4322    0.6144 H       1  UNL1        0.0391
     39 H          -2.8587   -3.1827    0.7682 H       1  UNL1        0.0655
     40 H          -0.9894    4.1554   -0.6843 H       1  UNL1        0.2100
     41 H          -4.7473   -1.0279    1.2911 H       1  UNL1        0.0660
     42 H          -5.6673   -0.3769   -0.0845 H       1  UNL1        0.0660
     43 H          -4.3106    0.5613    0.5801 H       1  UNL1        0.0660
@<TRIPOS>BOND
     1     1     6    1
     2     1    15    1
     3     2    11    1
     4     2    40    1
     5     3    19    1
     6     3    22    1
     7     4     8    1
     8     4    13    1
     9     4    20    1
    10     5     6    1
    11     5     7    1
    12     5     9    1
    13     5    10    1
    14     6    11    1
    15     6    23    1
    16     7     8    1
    17     7    16    2
    18     8    12    1
    19     8    24    1
    20     9    13    1
    21     9    25    1
    22     9    26    1
    23    10    14   ar
    24    10    15   ar
    25    11    17    1
    26    11    27    1
    27    12    14    1
    28    12    28    1
    29    12    29    1
    30    13    30    1
    31    13    31    1
    32    14    18   ar
    33    15    19   ar
    34    16    17    1
    35    16    32    1
    36    17    33    1
    37    17    34    1
    38    18    21   ar
    39    18    35    1
    40    19    21   ar
    41    20    36    1
    42    20    37    1
    43    20    38    1
    44    21    39    1
    45    22    41    1
    46    22    42    1
    47    22    43    1
@<TRIPOS>MOLECULE
5462306
 41 45 0 0 0
SMALL
GASTEIGER

@<TRIPOS>ATOM
      1 O          -1.9598   -0.2545   -1.0613 O.3     1  UNL1       -0.4760
      2 O          -3.0432    2.3187   -0.2679 O.2     1  UNL1       -0.4956
      3 O          -2.9010   -2.9331   -0.4612 O.3     1  UNL1       -0.5033
      4 N           3.2078    0.8117   -0.3319 N.3     1  UNL1       -0.2984
      5 C           0.3201    0.5432   -0.6233 C.3     1  UNL1        0.0673
      6 C           0.9792    1.2420    0.5368 C.2     1  UNL1       -0.0375
      7 C           2.3299    0.6096    0.8445 C.3     1  UNL1        0.0366
      8 C          -1.1293    0.9522   -0.9960 C.3     1  UNL1        0.1701
      9 C           1.2541    0.5837   -1.8517 C.3     1  UNL1       -0.0227
     10 C           0.0568   -0.8387   -0.1492 C.ar    1  UNL1        0.0154
     11 C           2.1229   -0.9015    1.2598 C.3     1  UNL1       -0.0078
     12 C           2.6994    0.1552   -1.5425 C.3     1  UNL1        0.0004
     13 C           0.8970   -1.5749    0.6745 C.ar    1  UNL1       -0.0377
     14 C          -1.2157   -1.2449   -0.4764 C.ar    1  UNL1        0.1671
     15 C          -1.7276    1.9660   -0.0439 C.2     1  UNL1        0.1388
     16 C           0.3460    2.1898    1.2420 C.2     1  UNL1       -0.0568
     17 C          -1.0263    2.5425    0.9468 C.2     1  UNL1       -0.0204
     18 C           0.4708   -2.8543    1.0304 C.ar    1  UNL1       -0.0545
     19 C           4.6010    0.4590   -0.0782 C.3     1  UNL1       -0.0122
     20 C          -1.6574   -2.5040   -0.1326 C.ar    1  UNL1        0.1588
     21 C          -0.7905   -3.3218    0.6073 C.ar    1  UNL1       -0.0162
     22 C          -3.8344    2.0541    0.8738 C.3     1  UNL1        0.0785
     23 H           2.7848    1.1347    1.6951 H       1  UNL1        0.0512
     24 H          -1.1581    1.3948   -2.0005 H       1  UNL1        0.0828
     25 H           1.2772    1.6102   -2.2440 H       1  UNL1        0.0290
     26 H           0.8654   -0.0512   -2.6586 H       1  UNL1        0.0290
     27 H           2.0005   -0.9164    2.3519 H       1  UNL1        0.0332
     28 H           3.0080   -1.5070    1.0408 H       1  UNL1        0.0332
     29 H           2.7561   -0.9369   -1.4577 H       1  UNL1        0.0427
     30 H           3.3227    0.4318   -2.4020 H       1  UNL1        0.0427
     31 H           0.8109    2.6539    2.1049 H       1  UNL1        0.0619
     32 H          -1.4668    3.2969    1.5909 H       1  UNL1        0.0652
     33 H           1.0862   -3.4823    1.6689 H       1  UNL1        0.0622
     34 H           5.2308    0.7850   -0.9137 H       1  UNL1        0.0391
     35 H           4.7531   -0.6167    0.0545 H       1  UNL1        0.0391
     36 H           4.9767    0.9745    0.8125 H       1  UNL1        0.0391
     37 H          -1.1105   -4.3176    0.9059 H       1  UNL1        0.0655
     38 H          -3.3477   -2.2253   -0.9576 H       1  UNL1        0.2923
     39 H          -4.8852    2.0990    0.5700 H       1  UNL1        0.0660
     40 H          -3.6893    2.8130    1.6495 H       1  UNL1        0.0660
     41 H          -3.6520    1.0513    1.2783 H       1  UNL1        0.0660
@<TRIPOS>BOND
     1     1     8    1
     2     1    14    1
     3     2    15    1
     4     2    22    1
     5     3    20    1
     6     3    38    1
     7     4     7    1
     8     4    12    1
     9     4    19    1
    10     5     6    1
    11     5     8    1
    12     5     9    1
    13     5    10    1
    14     6     7    1
    15     6    16    2
    16     7    11    1
    17     7    23    1
    18     8    15    1
    19     8    24    1
    20     9    12    1
    21     9    25    1
    22     9    26    1
    23    10    13   ar
    24    10    14   ar
    25    11    13    1
    26    11    27    1
    27    11    28    1
    28    12    29    1
    29    12    30    1
    30    13    18   ar
    31    14    20   ar
    32    15    17    2
    33    16    17    1
    34    16    31    1
    35    17    32    1
    36    18    21   ar
    37    18    33    1
    38    19    34    1
    39    19    35    1
    40    19    36    1
    41    20    21   ar
    42    21    37    1
    43    22    39    1
    44    22    40    1
    45    22    41    1
@<TRIPOS>MOLECULE
5463874
 50 54 0 0 0
SMALL
GASTEIGER

@<TRIPOS>ATOM
      1 O           1.0656    0.5424   -1.8035 O.3     1  UNL1       -0.4803
      2 O           2.2336   -1.1379   -0.0305 O.3     1  UNL1       -0.4578
      3 O           2.2624    2.9966   -0.7601 O.3     1  UNL1       -0.4914
      4 O           3.6202   -2.9818    0.0878 O.2     1  UNL1       -0.2512
      5 N          -3.7115   -0.5139   -0.0388 N.3     1  UNL1       -0.3018
      6 C          -0.9376   -0.4831   -0.9125 C.3     1  UNL1        0.0453
      7 C          -1.5198   -1.5816   -0.0212 C.3     1  UNL1       -0.0117
      8 C           0.3904   -0.7548   -1.6447 C.3     1  UNL1        0.1470
      9 C          -2.6105   -0.9150    0.8715 C.3     1  UNL1        0.0178
     10 C          -2.0630    0.0086   -1.8536 C.3     1  UNL1       -0.0266
     11 C          -0.4597    0.6654   -0.1016 C.ar    1  UNL1        0.0113
     12 C          -0.4528   -2.3673    0.7437 C.3     1  UNL1       -0.0444
     13 C           1.3442   -1.7659   -0.9557 C.3     1  UNL1        0.1405
     14 C          -2.0373    0.2397    1.7668 C.3     1  UNL1       -0.0113
     15 C           0.6061   -2.8951   -0.2322 C.3     1  UNL1       -0.0118
     16 C          -3.3227    0.4438   -1.0802 C.3     1  UNL1       -0.0002
     17 C          -0.9764    1.0810    1.1089 C.ar    1  UNL1       -0.0383
     18 C           0.6280    1.2603   -0.7114 C.ar    1  UNL1        0.1666
     19 C          -4.9176   -0.0828    0.6596 C.3     1  UNL1       -0.0125
     20 C          -0.4002    2.2164    1.6777 C.ar    1  UNL1       -0.0546
     21 C           1.2004    2.3909   -0.1759 C.ar    1  UNL1        0.1618
     22 C           0.6673    2.8754    1.0279 C.ar    1  UNL1       -0.0160
     23 C           3.1382   -1.9650    0.5681 C.2     1  UNL1        0.3043
     24 C           3.4703   -1.4423    1.9328 C.3     1  UNL1        0.0332
     25 C           2.7823    4.1660   -0.1228 C.3     1  UNL1        0.0790
     26 H          -2.0159   -2.3244   -0.6661 H       1  UNL1        0.0326
     27 H           0.1705   -1.1377   -2.6499 H       1  UNL1        0.0780
     28 H          -3.0114   -1.6869    1.5422 H       1  UNL1        0.0469
     29 H          -2.3329   -0.8058   -2.5395 H       1  UNL1        0.0287
     30 H          -1.7290    0.8439   -2.4827 H       1  UNL1        0.0287
     31 H          -0.9240   -3.2128    1.2590 H       1  UNL1        0.0270
     32 H           0.0254   -1.7557    1.5164 H       1  UNL1        0.0270
     33 H           1.9731   -2.1929   -1.7485 H       1  UNL1        0.0772
     34 H          -1.5770   -0.2254    2.6488 H       1  UNL1        0.0329
     35 H          -2.8378    0.8843    2.1430 H       1  UNL1        0.0329
     36 H           1.2700   -3.5663    0.3192 H       1  UNL1        0.0302
     37 H           0.1066   -3.5208   -0.9836 H       1  UNL1        0.0302
     38 H          -3.1664    1.4418   -0.6522 H       1  UNL1        0.0427
     39 H          -4.1397    0.5468   -1.8053 H       1  UNL1        0.0427
     40 H          -4.8009    0.8892    1.1492 H       1  UNL1        0.0391
     41 H          -5.2168   -0.8186    1.4139 H       1  UNL1        0.0391
     42 H          -5.7536   -0.0033   -0.0446 H       1  UNL1        0.0391
     43 H          -0.7586    2.5943    2.6316 H       1  UNL1        0.0622
     44 H           1.0571    3.7526    1.5357 H       1  UNL1        0.0655
     45 H           2.5685   -1.4187    2.5498 H       1  UNL1        0.0342
     46 H           3.9067   -0.4436    1.8509 H       1  UNL1        0.0342
     47 H           4.2004   -2.1042    2.4072 H       1  UNL1        0.0342
     48 H           3.1881    3.9334    0.8674 H       1  UNL1        0.0660
     49 H           2.0361    4.9668   -0.0858 H       1  UNL1        0.0660
     50 H           3.6140    4.5268   -0.7365 H       1  UNL1        0.0660
@<TRIPOS>BOND
     1     1     8    1
     2     1    18    1
     3     2    13    1
     4     2    23    1
     5     3    21    1
     6     3    25    1
     7     4    23    2
     8     5     9    1
     9     5    16    1
    10     5    19    1
    11     6     7    1
    12     6     8    1
    13     6    10    1
    14     6    11    1
    15     7     9    1
    16     7    12    1
    17     7    26    1
    18     8    13    1
    19     8    27    1
    20     9    14    1
    21     9    28    1
    22    10    16    1
    23    10    29    1
    24    10    30    1
    25    11    17   ar
    26    11    18   ar
    27    12    15    1
    28    12    31    1
    29    12    32    1
    30    13    15    1
    31    13    33    1
    32    14    17    1
    33    14    34    1
    34    14    35    1
    35    15    36    1
    36    15    37    1
    37    16    38    1
    38    16    39    1
    39    17    20   ar
    40    18    21   ar
    41    19    40    1
    42    19    41    1
    43    19    42    1
    44    20    22   ar
    45    20    43    1
    46    21    22   ar
    47    22    44    1
    48    23    24    1
    49    24    45    1
    50    24    46    1
    51    24    47    1
    52    25    48    1
    53    25    49    1
    54    25    50    1
@<TRIPOS>MOLECULE
11102868
 63 68 0 0 0
SMALL
GASTEIGER

@<TRIPOS>ATOM
      1 O           0.5941   -1.0485   -0.7894 O.3     1  UNL1       -0.4811
      2 O          -1.2249   -0.0387    0.7886 O.3     1  UNL1       -0.3377
      3 O           1.2500   -3.7388    0.0842 O.3     1  UNL1       -0.4914
      4 O          -3.3358    0.9343    0.5876 O.3     1  UNL1       -0.3315
      5 O          -2.0833   -2.1914   -0.8281 O.3     1  UNL1       -0.3841
      6 O          -4.9953   -2.6039   -0.6768 O.3     1  UNL1       -0.3864
      7 O          -6.3745   -0.0932   -1.1697 O.3     1  UNL1       -0.3860
      8 O          -6.4858    2.3527   -0.0383 O.3     1  UNL1       -0.4788
      9 O          -4.9886    2.5526    1.6689 O.2     1  UNL1       -0.2480
     10 N           4.5369    2.4072   -0.9647 N.3     1  UNL1       -0.3015
     11 C           2.0950    0.8658   -0.6691 C.3     1  UNL1        0.0480
     12 C           2.4394    2.0538    0.2423 C.3     1  UNL1        0.0064
     13 C           0.6155    0.4211   -0.7430 C.3     1  UNL1        0.1402
     14 C           3.9965    2.0828    0.3777 C.3     1  UNL1        0.0213
     15 C           2.7212    1.0904   -2.0596 C.3     1  UNL1       -0.0263
     16 C           2.6463   -0.3768   -0.0515 C.ar    1  UNL1        0.0116
     17 C           4.5730    0.7756    1.0224 C.3     1  UNL1       -0.0110
     18 C           4.2244    1.4068   -1.9900 C.3     1  UNL1       -0.0001
     19 C          -0.2728    0.9529    0.4119 C.3     1  UNL1        0.1175
     20 C           3.8144   -0.4790    0.6824 C.ar    1  UNL1       -0.0383
     21 C           1.6956    1.9827    1.5514 C.2     1  UNL1       -0.0799
     22 C           1.7738   -1.4298   -0.2094 C.ar    1  UNL1        0.1666
     23 C           0.4626    1.4598    1.6240 C.2     1  UNL1       -0.0556
     24 C           4.1547   -1.7441    1.1644 C.ar    1  UNL1       -0.0546
     25 C           5.9591    2.7339   -0.9549 C.3     1  UNL1       -0.0124
     26 C           2.0918   -2.6891    0.2496 C.ar    1  UNL1        0.1618
     27 C           3.3062   -2.8447    0.9300 C.ar    1  UNL1       -0.0160
     28 C          -2.4029    0.0397   -0.0132 C.3     1  UNL1        0.1893
     29 C          -3.0003   -1.3642   -0.1121 C.3     1  UNL1        0.1342
     30 C          -4.3427   -1.3444   -0.8436 C.3     1  UNL1        0.1145
     31 C          -5.2640   -0.2572   -0.2894 C.3     1  UNL1        0.1201
     32 C          -4.5264    1.0714   -0.1795 C.3     1  UNL1        0.1859
     33 C           1.6728   -5.0042    0.5967 C.3     1  UNL1        0.0790
     34 C          -5.3257    2.0644    0.6004 C.2     1  UNL1        0.3367
     35 H           2.1188    2.9928   -0.2340 H       1  UNL1        0.0368
     36 H           0.1653    0.7506   -1.6883 H       1  UNL1        0.0772
     37 H           4.2591    2.9194    1.0400 H       1  UNL1        0.0472
     38 H           2.2080    1.9318   -2.5446 H       1  UNL1        0.0287
     39 H           2.5730    0.2183   -2.7096 H       1  UNL1        0.0287
     40 H           4.5178    0.8981    2.1127 H       1  UNL1        0.0329
     41 H           5.6321    0.6412    0.7823 H       1  UNL1        0.0329
     42 H           4.7915    0.4827   -1.8224 H       1  UNL1        0.0427
     43 H           4.5322    1.7809   -2.9746 H       1  UNL1        0.0427
     44 H          -0.8042    1.8449    0.0456 H       1  UNL1        0.0679
     45 H           2.1533    2.4024    2.4418 H       1  UNL1        0.0573
     46 H          -0.0595    1.4689    2.5766 H       1  UNL1        0.0596
     47 H           5.0622   -1.8838    1.7458 H       1  UNL1        0.0622
     48 H           6.5952    1.8650   -0.7593 H       1  UNL1        0.0391
     49 H           6.1786    3.5011   -0.2044 H       1  UNL1        0.0391
     50 H           6.2564    3.1536   -1.9227 H       1  UNL1        0.0391
     51 H           3.6401   -3.7938    1.3380 H       1  UNL1        0.0655
     52 H          -2.1508    0.3953   -1.0222 H       1  UNL1        0.0938
     53 H          -3.1162   -1.8072    0.8842 H       1  UNL1        0.0671
     54 H          -4.1898   -1.2137   -1.9223 H       1  UNL1        0.0648
     55 H          -5.6600   -0.5625    0.6879 H       1  UNL1        0.0652
     56 H          -4.2913    1.5132   -1.1558 H       1  UNL1        0.0741
     57 H           2.5880   -5.3500    0.1047 H       1  UNL1        0.0660
     58 H           0.8861   -5.7282    0.3612 H       1  UNL1        0.0660
     59 H           1.7735   -4.9800    1.6869 H       1  UNL1        0.0660
     60 H          -1.9568   -1.8070   -1.7124 H       1  UNL1        0.2101
     61 H          -5.7806   -2.6087   -1.2495 H       1  UNL1        0.2100
     62 H          -6.8971   -0.9121   -1.1420 H       1  UNL1        0.2100
     63 H          -7.0265    3.0025    0.4593 H       1  UNL1        0.2951
@<TRIPOS>BOND
     1     1    13    1
     2     1    22    1
     3     2    19    1
     4     2    28    1
     5     3    26    1
     6     3    33    1
     7     4    28    1
     8     4    32    1
     9     5    29    1
    10     5    60    1
    11     6    30    1
    12     6    61    1
    13     7    31    1
    14     7    62    1
    15     8    34    1
    16     8    63    1
    17     9    34    2
    18    10    14    1
    19    10    18    1
    20    10    25    1
    21    11    12    1
    22    11    13    1
    23    11    15    1
    24    11    16    1
    25    12    14    1
    26    12    21    1
    27    12    35    1
    28    13    19    1
    29    13    36    1
    30    14    17    1
    31    14    37    1
    32    15    18    1
    33    15    38    1
    34    15    39    1
    35    16    20   ar
    36    16    22   ar
    37    17    20    1
    38    17    40    1
    39    17    41    1
    40    18    42    1
    41    18    43    1
    42    19    23    1
    43    19    44    1
    44    20    24   ar
    45    21    23    2
    46    21    45    1
    47    22    26   ar
    48    23    46    1
    49    24    27   ar
    50    24    47    1
    51    25    48    1
    52    25    49    1
    53    25    50    1
    54    26    27   ar
    55    27    51    1
    56    28    29    1
    57    28    52    1
    58    29    30    1
    59    29    53    1
    60    30    31    1
    61    30    54    1
    62    31    32    1
    63    31    55    1
    64    32    34    1
    65    32    56    1
    66    33    57    1
    67    33    58    1
    68    33    59    1
@<TRIPOS>MOLECULE
5459910
 41 45 0 0 0
SMALL
GASTEIGER

@<TRIPOS>ATOM
      1 O           1.6779    0.6777    1.2986 O.3     1  UNL1       -0.4761
      2 O           2.0846    3.0545   -0.1345 O.2     1  UNL1       -0.2887
      3 O           3.5672   -1.4479    0.6220 O.3     1  UNL1       -0.4914
      4 N          -3.3444   -0.3819    0.4537 N.3     1  UNL1       -0.3015
      5 C          -0.6572    0.6862    0.6809 C.3     1  UNL1        0.0525
      6 C          -1.6751    1.2221   -0.3275 C.3     1  UNL1        0.0070
      7 C          -2.5661    0.0084   -0.7480 C.3     1  UNL1        0.0213
      8 C          -1.4160    0.2119    1.9370 C.3     1  UNL1       -0.0260
      9 C           0.5557    1.5679    0.9928 C.3     1  UNL1        0.1719
     10 C           0.1009   -0.4550    0.0967 C.ar    1  UNL1        0.0119
     11 C          -1.7416   -1.1497   -1.4131 C.3     1  UNL1       -0.0110
     12 C          -2.5255   -0.8005    1.5969 C.3     1  UNL1       -0.0001
     13 C          -0.3740   -1.3664   -0.8246 C.ar    1  UNL1       -0.0383
     14 C          -1.0338    1.9697   -1.4628 C.2     1  UNL1       -0.0750
     15 C           1.4060   -0.4419    0.5464 C.ar    1  UNL1        0.1671
     16 C           1.0157    2.4446   -0.1742 C.2     1  UNL1        0.1969
     17 C           0.1754    2.5387   -1.3963 C.2     1  UNL1       -0.0190
     18 C          -4.4022   -1.3471    0.1740 C.3     1  UNL1       -0.0124
     19 C           0.5053   -2.3740   -1.2211 C.ar    1  UNL1       -0.0546
     20 C           2.2863   -1.4337    0.1802 C.ar    1  UNL1        0.1618
     21 C           1.8190   -2.4163   -0.7049 C.ar    1  UNL1       -0.0160
     22 C           4.5419   -0.7674   -0.1721 C.3     1  UNL1        0.0790
     23 H          -2.3220    1.9643    0.1655 H       1  UNL1        0.0368
     24 H          -3.2891    0.3651   -1.4946 H       1  UNL1        0.0472
     25 H          -1.8695    1.0832    2.4286 H       1  UNL1        0.0288
     26 H          -0.7373   -0.2404    2.6716 H       1  UNL1        0.0288
     27 H           0.3751    2.2227    1.8529 H       1  UNL1        0.0827
     28 H          -1.5975   -0.8842   -2.4692 H       1  UNL1        0.0329
     29 H          -2.2996   -2.0912   -1.4061 H       1  UNL1        0.0329
     30 H          -2.0819   -1.7878    1.4172 H       1  UNL1        0.0427
     31 H          -3.1625   -0.9078    2.4839 H       1  UNL1        0.0427
     32 H          -1.6168    2.0994   -2.3709 H       1  UNL1        0.0577
     33 H           0.5740    3.0979   -2.2354 H       1  UNL1        0.0650
     34 H          -4.0172   -2.3451   -0.0576 H       1  UNL1        0.0391
     35 H          -5.0261   -1.0124   -0.6620 H       1  UNL1        0.0391
     36 H          -5.0678   -1.4390    1.0398 H       1  UNL1        0.0391
     37 H           0.1936   -3.1218   -1.9452 H       1  UNL1        0.0622
     38 H           2.4862   -3.2111   -1.0313 H       1  UNL1        0.0655
     39 H           5.5124   -0.8616    0.3228 H       1  UNL1        0.0660
     40 H           4.2924    0.2950   -0.2576 H       1  UNL1        0.0660
     41 H           4.6084   -1.2204   -1.1662 H       1  UNL1        0.0660
@<TRIPOS>BOND
     1     1     9    1
     2     1    15    1
     3     2    16    2
     4     3    20    1
     5     3    22    1
     6     4     7    1
     7     4    12    1
     8     4    18    1
     9     5     6    1
    10     5     8    1
    11     5     9    1
    12     5    10    1
    13     6     7    1
    14     6    14    1
    15     6    23    1
    16     7    11    1
    17     7    24    1
    18     8    12    1
    19     8    25    1
    20     8    26    1
    21     9    16    1
    22     9    27    1
    23    10    13   ar
    24    10    15   ar
    25    11    13    1
    26    11    28    1
    27    11    29    1
    28    12    30    1
    29    12    31    1
    30    13    19   ar
    31    14    17    2
    32    14    32    1
    33    15    20   ar
    34    16    17    1
    35    17    33    1
    36    18    34    1
    37    18    35    1
    38    18    36    1
    39    19    21   ar
    40    19    37    1
    41    20    21   ar
    42    21    38    1
    43    22    39    1
    44    22    40    1
    45    22    41    1
@<TRIPOS>MOLECULE
545863
 51 55 0 0 0
SMALL
GASTEIGER

@<TRIPOS>ATOM
      1 O          -1.3435   -0.0541    0.7672 O.3     1  UNL1       -0.4799
      2 O          -2.3346   -1.6546   -1.0426 O.3     1  UNL1       -0.4534
      3 O          -2.2919    2.6492    0.2944 O.3     1  UNL1       -0.4914
      4 O          -3.1496   -2.5517    0.9208 O.2     1  UNL1       -0.2508
      5 N           3.8527   -0.7740    0.7459 N.3     1  UNL1       -0.3015
      6 C           0.9607   -0.7951    0.4963 C.3     1  UNL1        0.0491
      7 C           1.8856   -1.4555   -0.5376 C.3     1  UNL1        0.0064
      8 C           3.1991   -0.6087   -0.5750 C.3     1  UNL1        0.0213
      9 C          -0.5177   -1.2479    0.5318 C.3     1  UNL1        0.1509
     10 C           1.6319   -0.8380    1.8833 C.3     1  UNL1       -0.0263
     11 C           0.7262    0.6200    0.0821 C.ar    1  UNL1        0.0116
     12 C           2.9495    0.8776   -1.0061 C.3     1  UNL1       -0.0110
     13 C           3.0595   -0.2671    1.8702 C.3     1  UNL1       -0.0001
     14 C           1.6319    1.4487   -0.5555 C.ar    1  UNL1       -0.0383
     15 C          -0.9873   -2.0061   -0.7372 C.3     1  UNL1        0.1587
     16 C           1.2022   -1.6153   -1.8716 C.2     1  UNL1       -0.0788
     17 C          -0.5789    0.9889    0.3189 C.ar    1  UNL1        0.1666
     18 C          -0.1162   -1.8477   -1.9550 C.2     1  UNL1       -0.0439
     19 C           5.2194   -0.2643    0.7854 C.3     1  UNL1       -0.0124
     20 C           1.2112    2.7475   -0.8462 C.ar    1  UNL1       -0.0546
     21 C          -1.0146    2.2675    0.0488 C.ar    1  UNL1        0.1618
     22 C          -0.0985    3.1578   -0.5260 C.ar    1  UNL1       -0.0160
     23 C          -3.2248   -1.7592   -0.0081 C.2     1  UNL1        0.3075
     24 C          -4.3209   -0.7363   -0.1939 C.3     1  UNL1        0.0421
     25 C          -2.6444    3.9980   -0.0210 C.3     1  UNL1        0.0790
     26 C          -4.9071   -0.2797    1.1306 C.3     1  UNL1       -0.0552
     27 H           2.1430   -2.4739   -0.2090 H       1  UNL1        0.0368
     28 H           3.8667   -1.0599   -1.3221 H       1  UNL1        0.0472
     29 H          -0.6827   -1.9020    1.3978 H       1  UNL1        0.0783
     30 H           1.6754   -1.8824    2.2209 H       1  UNL1        0.0287
     31 H           1.0399   -0.2933    2.6300 H       1  UNL1        0.0287
     32 H           2.9514    0.9032   -2.1042 H       1  UNL1        0.0329
     33 H           3.7640    1.5330   -0.6828 H       1  UNL1        0.0329
     34 H           3.0215    0.8293    1.8608 H       1  UNL1        0.0427
     35 H           3.5400   -0.5488    2.8156 H       1  UNL1        0.0427
     36 H          -0.9723   -3.0841   -0.5211 H       1  UNL1        0.0817
     37 H           1.7993   -1.5828   -2.7776 H       1  UNL1        0.0574
     38 H          -0.5640   -2.0029   -2.9324 H       1  UNL1        0.0607
     39 H           5.2688    0.8284    0.7457 H       1  UNL1        0.0391
     40 H           5.8115   -0.6691   -0.0427 H       1  UNL1        0.0391
     41 H           5.7160   -0.5871    1.7076 H       1  UNL1        0.0391
     42 H           1.8816    3.4427   -1.3448 H       1  UNL1        0.0622
     43 H          -0.3492    4.1819   -0.7850 H       1  UNL1        0.0655
     44 H          -3.9127    0.1385   -0.7125 H       1  UNL1        0.0375
     45 H          -5.0986   -1.1793   -0.8241 H       1  UNL1        0.0375
     46 H          -2.0619    4.7128    0.5698 H       1  UNL1        0.0660
     47 H          -3.6953    4.1309    0.2553 H       1  UNL1        0.0660
     48 H          -2.5666    4.1899   -1.0964 H       1  UNL1        0.0660
     49 H          -4.1324    0.1453    1.7772 H       1  UNL1        0.0235
     50 H          -5.6742    0.4831    0.9657 H       1  UNL1        0.0235
     51 H          -5.3670   -1.1165    1.6665 H       1  UNL1        0.0235
@<TRIPOS>BOND
     1     1     9    1
     2     1    17    1
     3     2    15    1
     4     2    23    1
     5     3    21    1
     6     3    25    1
     7     4    23    2
     8     5     8    1
     9     5    13    1
    10     5    19    1
    11     6     7    1
    12     6     9    1
    13     6    10    1
    14     6    11    1
    15     7     8    1
    16     7    16    1
    17     7    27    1
    18     8    12    1
    19     8    28    1
    20     9    15    1
    21     9    29    1
    22    10    13    1
    23    10    30    1
    24    10    31    1
    25    11    14   ar
    26    11    17   ar
    27    12    14    1
    28    12    32    1
    29    12    33    1
    30    13    34    1
    31    13    35    1
    32    14    20   ar
    33    15    18    1
    34    15    36    1
    35    16    18    2
    36    16    37    1
    37    17    21   ar
    38    18    38    1
    39    19    39    1
    40    19    40    1
    41    19    41    1
    42    20    22   ar
    43    20    42    1
    44    21    22   ar
    45    22    43    1
    46    23    24    1
    47    24    26    1
    48    24    44    1
    49    24    45    1
    50    25    46    1
    51    25    47    1
    52    25    48    1
    53    26    49    1
    54    26    50    1
    55    26    51    1
@<TRIPOS>MOLECULE
9926820
 42 46 0 0 0
SMALL
GASTEIGER

@<TRIPOS>ATOM
      1 O          -1.7083    0.7582   -1.3001 O.3     1  UNL1       -0.4760
      2 O           2.6054    1.9031   -0.2117 O.3     1  UNL1       -0.3819
      3 O          -1.9146    3.1511    0.1614 O.2     1  UNL1       -0.2887
      4 O          -3.7874   -1.1945   -0.6583 O.3     1  UNL1       -0.4914
      5 N           3.1732   -0.7846   -0.4364 N.3     1  UNL1       -0.2990
      6 C           0.6132    0.5544   -0.6621 C.3     1  UNL1        0.0785
      7 C           1.6614    0.9905    0.3710 C.3     1  UNL1        0.1137
      8 C           2.4395   -0.3127    0.7683 C.3     1  UNL1        0.0474
      9 C           1.3188    0.0133   -1.9247 C.3     1  UNL1       -0.0235
     10 C          -0.5161    1.5438   -0.9710 C.3     1  UNL1        0.1744
     11 C          -0.2514   -0.5205   -0.0930 C.ar    1  UNL1        0.0145
     12 C           1.5074   -1.3893    1.4287 C.3     1  UNL1       -0.0086
     13 C           2.3216   -1.1062   -1.5866 C.3     1  UNL1        0.0000
     14 C           0.1310   -1.4778    0.8258 C.ar    1  UNL1       -0.0381
     15 C           1.0527    1.7390    1.5265 C.2     1  UNL1       -0.0470
     16 C          -1.5456   -0.3873   -0.5550 C.ar    1  UNL1        0.1672
     17 C          -0.9151    2.4336    0.2099 C.2     1  UNL1        0.1970
     18 C          -0.1067    2.4043    1.4576 C.2     1  UNL1       -0.0166
     19 C           4.1258   -1.8544   -0.1604 C.3     1  UNL1       -0.0124
     20 C          -0.8392   -2.4049    1.2059 C.ar    1  UNL1       -0.0546
     21 C          -2.5147   -1.2986   -0.2052 C.ar    1  UNL1        0.1618
     22 C          -2.1462   -2.3253    0.6767 C.ar    1  UNL1       -0.0160
     23 C          -4.7048   -0.4353    0.1328 C.3     1  UNL1        0.0790
     24 H           3.2068   -0.0359    1.5051 H       1  UNL1        0.0497
     25 H           1.8505    0.8323   -2.4262 H       1  UNL1        0.0288
     26 H           0.5958   -0.3724   -2.6553 H       1  UNL1        0.0288
     27 H          -0.2707    2.1954   -1.8173 H       1  UNL1        0.0827
     28 H           1.3797   -1.1118    2.4836 H       1  UNL1        0.0329
     29 H           1.9753   -2.3785    1.4259 H       1  UNL1        0.0329
     30 H           1.7810   -2.0460   -1.4179 H       1  UNL1        0.0427
     31 H           2.9489   -1.2698   -2.4719 H       1  UNL1        0.0427
     32 H           1.6193    1.7824    2.4532 H       1  UNL1        0.0602
     33 H           2.1080    2.6338   -0.6177 H       1  UNL1        0.2107
     34 H          -0.4819    2.9592    2.3102 H       1  UNL1        0.0651
     35 H           4.7818   -2.0078   -1.0249 H       1  UNL1        0.0391
     36 H           3.6399   -2.8095    0.0622 H       1  UNL1        0.0391
     37 H           4.7774   -1.5913    0.6799 H       1  UNL1        0.0391
     38 H          -0.6033   -3.1829    1.9270 H       1  UNL1        0.0622
     39 H          -2.8852   -3.0592    0.9906 H       1  UNL1        0.0655
     40 H          -4.8213   -0.8882    1.1223 H       1  UNL1        0.0660
     41 H          -5.6749   -0.4381   -0.3716 H       1  UNL1        0.0660
     42 H          -4.3617    0.5997    0.2297 H       1  UNL1        0.0660
@<TRIPOS>BOND
     1     1    10    1
     2     1    16    1
     3     2     7    1
     4     2    33    1
     5     3    17    2
     6     4    21    1
     7     4    23    1
     8     5     8    1
     9     5    13    1
    10     5    19    1
    11     6     7    1
    12     6     9    1
    13     6    10    1
    14     6    11    1
    15     7     8    1
    16     7    15    1
    17     8    12    1
    18     8    24    1
    19     9    13    1
    20     9    25    1
    21     9    26    1
    22    10    17    1
    23    10    27    1
    24    11    14   ar
    25    11    16   ar
    26    12    14    1
    27    12    28    1
    28    12    29    1
    29    13    30    1
    30    13    31    1
    31    14    20   ar
    32    15    18    2
    33    15    32    1
    34    16    21   ar
    35    17    18    1
    36    18    34    1
    37    19    35    1
    38    19    36    1
    39    19    37    1
    40    20    22   ar
    41    20    38    1
    42    21    22   ar
    43    22    39    1
    44    23    40    1
    45    23    41    1
    46    23    42    1
@<TRIPOS>MOLECULE
5464304
 56 61 0 0 0
SMALL
GASTEIGER

@<TRIPOS>ATOM
      1 O          -0.6497    1.0129   -2.2030 O.3     1  UNL1       -0.4803
      2 O           1.3696   -0.5473   -1.2979 O.3     1  UNL1       -0.4541
      3 O           0.4442    3.5475   -1.2422 O.3     1  UNL1       -0.4914
      4 O           2.9713   -2.0388   -2.0113 O.2     1  UNL1       -0.2449
      5 N          -4.1292   -1.2306    0.9451 N.3     1  UNL1       -0.3018
      6 N           4.8641   -1.3429    1.7124 N.ar    1  UNL1       -0.2624
      7 C          -1.9560   -0.5089   -0.8481 C.3     1  UNL1        0.0453
      8 C          -1.9610   -1.7933   -0.0171 C.3     1  UNL1       -0.0117
      9 C          -0.9911   -0.4091   -2.0449 C.3     1  UNL1        0.1470
     10 C          -2.7122   -1.4748    1.3115 C.3     1  UNL1        0.0178
     11 C          -3.4217   -0.1788   -1.2176 C.3     1  UNL1       -0.0266
     12 C          -1.3935    0.6262   -0.0734 C.ar    1  UNL1        0.0113
     13 C          -0.5690   -2.4033    0.1599 C.3     1  UNL1       -0.0444
     14 C           0.3051   -1.2546   -1.9366 C.3     1  UNL1        0.1408
     15 C          -2.0314   -0.3217    2.1302 C.3     1  UNL1       -0.0113
     16 C           0.0986   -2.5854   -1.2088 C.3     1  UNL1       -0.0118
     17 C          -4.3351   -0.1093    0.0214 C.3     1  UNL1       -0.0002
     18 C          -1.4600    0.7929    1.2951 C.ar    1  UNL1       -0.0383
     19 C          -0.7392    1.5025   -0.9177 C.ar    1  UNL1        0.1666
     20 C          -5.0223   -1.1456    2.0954 C.3     1  UNL1       -0.0125
     21 C          -0.9001    1.9616    1.8104 C.ar    1  UNL1       -0.0546
     22 C          -0.1948    2.6690   -0.4325 C.ar    1  UNL1        0.1618
     23 C          -0.2900    2.8997    0.9480 C.ar    1  UNL1       -0.0160
     24 C           2.5536   -1.2081   -1.2196 C.2     1  UNL1        0.3410
     25 C           3.3052   -0.7845   -0.0112 C.ar    1  UNL1        0.0770
     26 C           0.9742    4.7299   -0.6380 C.3     1  UNL1        0.0790
     27 C           3.1497    0.4892    0.4803 C.ar    1  UNL1       -0.0449
     28 C           4.1509   -1.6643    0.6098 C.ar    1  UNL1        0.0415
     29 C           3.8668    0.8572    1.6134 C.ar    1  UNL1       -0.0428
     30 C           4.7030   -0.0872    2.1868 C.ar    1  UNL1        0.0276
     31 H          -2.5412   -2.5556   -0.5612 H       1  UNL1        0.0326
     32 H          -1.5187   -0.7251   -2.9544 H       1  UNL1        0.0780
     33 H          -2.6910   -2.3801    1.9330 H       1  UNL1        0.0469
     34 H          -3.8010   -0.9574   -1.8933 H       1  UNL1        0.0287
     35 H          -3.4977    0.7692   -1.7658 H       1  UNL1        0.0287
     36 H          -0.6599   -3.3794    0.6512 H       1  UNL1        0.0270
     37 H           0.0660   -1.7855    0.8040 H       1  UNL1        0.0270
     38 H           0.6374   -1.4511   -2.9650 H       1  UNL1        0.0772
     39 H          -1.1963   -0.7641    2.6897 H       1  UNL1        0.0329
     40 H          -2.7160    0.0917    2.8774 H       1  UNL1        0.0329
     41 H           1.0236   -3.1496   -1.0624 H       1  UNL1        0.0302
     42 H          -0.5450   -3.2238   -1.8284 H       1  UNL1        0.0302
     43 H          -4.1886    0.8493    0.5344 H       1  UNL1        0.0427
     44 H          -5.3745   -0.1119   -0.3304 H       1  UNL1        0.0427
     45 H          -4.8837   -0.2272    2.6746 H       1  UNL1        0.0391
     46 H          -4.8823   -2.0025    2.7634 H       1  UNL1        0.0391
     47 H          -6.0669   -1.1773    1.7655 H       1  UNL1        0.0391
     48 H          -0.9159    2.1522    2.8801 H       1  UNL1        0.0622
     49 H           0.1196    3.7832    1.4287 H       1  UNL1        0.0655
     50 H           1.7643    4.4897    0.0813 H       1  UNL1        0.0660
     51 H           0.1822    5.3415   -0.1930 H       1  UNL1        0.0660
     52 H           1.4324    5.3238   -1.4353 H       1  UNL1        0.0660
     53 H           2.5042    1.2224    0.0090 H       1  UNL1        0.0627
     54 H           4.2982   -2.6788    0.2550 H       1  UNL1        0.0838
     55 H           3.7766    1.8531    2.0320 H       1  UNL1        0.0633
     56 H           5.2850    0.1504    3.0711 H       1  UNL1        0.0829
@<TRIPOS>BOND
     1     1     9    1
     2     1    19    1
     3     2    14    1
     4     2    24    1
     5     3    22    1
     6     3    26    1
     7     4    24    2
     8     5    10    1
     9     5    17    1
    10     5    20    1
    11     6    28   ar
    12     6    30   ar
    13     7     8    1
    14     7     9    1
    15     7    11    1
    16     7    12    1
    17     8    10    1
    18     8    13    1
    19     8    31    1
    20     9    14    1
    21     9    32    1
    22    10    15    1
    23    10    33    1
    24    11    17    1
    25    11    34    1
    26    11    35    1
    27    12    18   ar
    28    12    19   ar
    29    13    16    1
    30    13    36    1
    31    13    37    1
    32    14    16    1
    33    14    38    1
    34    15    18    1
    35    15    39    1
    36    15    40    1
    37    16    41    1
    38    16    42    1
    39    17    43    1
    40    17    44    1
    41    18    21   ar
    42    19    22   ar
    43    20    45    1
    44    20    46    1
    45    20    47    1
    46    21    23   ar
    47    21    48    1
    48    22    23   ar
    49    23    49    1
    50    24    25    1
    51    25    27   ar
    52    25    28   ar
    53    26    50    1
    54    26    51    1
    55    26    52    1
    56    27    29   ar
    57    27    53    1
    58    28    54    1
    59    29    30   ar
    60    29    55    1
    61    30    56    1
@<TRIPOS>MOLECULE
71314936
 44 48 0 0 0
SMALL
GASTEIGER

@<TRIPOS>ATOM
      1 O           1.7236    1.0262    1.2371 O.3     1  UNL1       -0.4811
      2 O          -4.0972    0.1906    0.6835 O.co2   1  UNL1       -0.7753
      3 O           2.0469    3.1623   -0.2380 O.3     1  UNL1       -0.3841
      4 O           3.9025   -0.7952    0.6251 O.3     1  UNL1       -0.4914
      5 N          -3.1673   -0.7767    0.3431 N.3     1  UNL1        0.2178
      6 C          -0.6037    0.6786    0.6152 C.3     1  UNL1        0.0553
      7 C          -1.6194    1.0380   -0.4788 C.3     1  UNL1        0.0338
      8 C          -2.3402   -0.2918   -0.8720 C.3     1  UNL1       -0.0105
      9 C           0.4633    1.7386    0.9783 C.3     1  UNL1        0.1402
     10 C          -1.3419    0.1367    1.8576 C.3     1  UNL1        0.0014
     11 C           0.3273   -0.3568    0.0777 C.ar    1  UNL1        0.0120
     12 C          -2.2723   -1.0369    1.5380 C.3     1  UNL1       -0.0317
     13 C          -1.3580   -1.3607   -1.4532 C.3     1  UNL1        0.0164
     14 C           0.0106   -1.3540   -0.8261 C.ar    1  UNL1       -0.0345
     15 C           0.6655    2.8462   -0.0901 C.3     1  UNL1        0.1110
     16 C          -0.9730    1.7603   -1.6316 C.2     1  UNL1       -0.0761
     17 C           1.6126   -0.1347    0.5195 C.ar    1  UNL1        0.1666
     18 C           0.0795    2.5704   -1.4469 C.2     1  UNL1       -0.0558
     19 C          -3.9564   -2.0166    0.0240 C.3     1  UNL1       -0.0436
     20 C           1.0343   -2.2305   -1.1906 C.ar    1  UNL1       -0.0544
     21 C           2.6366   -0.9915    0.1819 C.ar    1  UNL1        0.1618
     22 C           2.3335   -2.0603   -0.6714 C.ar    1  UNL1       -0.0160
     23 C           4.8930   -1.7419    0.2178 C.3     1  UNL1        0.0790
     24 H          -2.3592    1.7390   -0.0693 H       1  UNL1        0.0408
     25 H          -3.1086   -0.0819   -1.6289 H       1  UNL1        0.0859
     26 H           0.2051    2.2347    1.9228 H       1  UNL1        0.0772
     27 H          -1.9359    0.9500    2.2947 H       1  UNL1        0.0327
     28 H          -0.6339   -0.1806    2.6339 H       1  UNL1        0.0327
     29 H          -1.7070   -1.9489    1.3208 H       1  UNL1        0.0814
     30 H          -2.9388   -1.2410    2.3842 H       1  UNL1        0.0814
     31 H          -1.2179   -1.1295   -2.5177 H       1  UNL1        0.0368
     32 H          -1.7706   -2.3706   -1.4067 H       1  UNL1        0.0368
     33 H           0.1753    3.7568    0.2783 H       1  UNL1        0.0675
     34 H          -1.4004    1.6553   -2.6241 H       1  UNL1        0.0575
     35 H           0.4799    3.1076   -2.3024 H       1  UNL1        0.0596
     36 H          -4.5064   -1.8323   -0.9023 H       1  UNL1        0.0777
     37 H          -3.2786   -2.8658   -0.0688 H       1  UNL1        0.0777
     38 H          -4.6507   -2.1841    0.8533 H       1  UNL1        0.0777
     39 H           0.8427   -3.0341   -1.8968 H       1  UNL1        0.0622
     40 H           3.0731   -2.7824   -1.0035 H       1  UNL1        0.0655
     41 H           2.1182    3.9294   -0.8317 H       1  UNL1        0.2104
     42 H           5.8391   -1.4391    0.6779 H       1  UNL1        0.0660
     43 H           5.0410   -1.7230   -0.8672 H       1  UNL1        0.0660
     44 H           4.6617   -2.7470    0.5860 H       1  UNL1        0.0660
@<TRIPOS>UNITY_ATOM_ATTR
2 1
charge -1
5 1
charge 1
@<TRIPOS>BOND
     1     1     9    1
     2     1    17    1
     3     2     5    1
     4     3    15    1
     5     3    41    1
     6     4    21    1
     7     4    23    1
     8     5     8    1
     9     5    12    1
    10     5    19    1
    11     6     7    1
    12     6     9    1
    13     6    10    1
    14     6    11    1
    15     7     8    1
    16     7    16    1
    17     7    24    1
    18     8    13    1
    19     8    25    1
    20     9    15    1
    21     9    26    1
    22    10    12    1
    23    10    27    1
    24    10    28    1
    25    11    14   ar
    26    11    17   ar
    27    12    29    1
    28    12    30    1
    29    13    14    1
    30    13    31    1
    31    13    32    1
    32    14    20   ar
    33    15    18    1
    34    15    33    1
    35    16    18    2
    36    16    34    1
    37    17    21   ar
    38    18    35    1
    39    19    36    1
    40    19    37    1
    41    19    38    1
    42    20    22   ar
    43    20    39    1
    44    21    22   ar
    45    22    40    1
    46    23    42    1
    47    23    43    1
    48    23    44    1
@<TRIPOS>MOLECULE
5492803
 44 48 0 0 0
SMALL
GASTEIGER

@<TRIPOS>ATOM
      1 O           1.6852    1.0739    1.2235 O.3     1  UNL1       -0.4840
      2 O           3.8277   -0.8132    0.6003 O.3     1  UNL1       -0.4914
      3 N          -3.1533   -0.6897    0.4954 N.3     1  UNL1       -0.3018
      4 C          -0.6364    0.7571    0.6214 C.3     1  UNL1        0.0418
      5 C          -1.7436    1.0977   -0.3798 C.3     1  UNL1       -0.0119
      6 C          -2.4630   -0.2383   -0.7378 C.3     1  UNL1        0.0178
      7 C           0.4540    1.8103    0.8916 C.3     1  UNL1        0.1104
      8 C          -1.2978    0.2206    1.9104 C.3     1  UNL1       -0.0267
      9 C           0.2622   -0.2881    0.0626 C.ar    1  UNL1        0.0112
     10 C          -1.2338    1.8932   -1.5857 C.3     1  UNL1       -0.0477
     11 C           0.7635    2.7380   -0.3013 C.3     1  UNL1       -0.0149
     12 C          -1.4939   -1.2935   -1.3781 C.3     1  UNL1       -0.0113
     13 C          -2.2605   -0.9489    1.6305 C.3     1  UNL1       -0.0002
     14 C          -0.4695    3.1282   -1.1077 C.3     1  UNL1       -0.0494
     15 C          -0.0990   -1.2942   -0.8115 C.ar    1  UNL1       -0.0383
     16 C           1.5558   -0.0931    0.5046 C.ar    1  UNL1        0.1664
     17 C          -4.0725   -1.8008    0.2747 C.3     1  UNL1       -0.0125
     18 C           0.9016   -2.1937   -1.1792 C.ar    1  UNL1       -0.0546
     19 C           2.5542   -0.9775    0.1673 C.ar    1  UNL1        0.1618
     20 C           2.2132   -2.0445   -0.6770 C.ar    1  UNL1       -0.0160
     21 C           4.7059   -0.0434   -0.2242 C.3     1  UNL1        0.0790
     22 H          -2.4723    1.7565    0.1185 H       1  UNL1        0.0326
     23 H          -3.2413   -0.0105   -1.4784 H       1  UNL1        0.0469
     24 H           0.1886    2.4264    1.7595 H       1  UNL1        0.0742
     25 H          -1.8604    1.0357    2.3852 H       1  UNL1        0.0287
     26 H          -0.5488   -0.1063    2.6432 H       1  UNL1        0.0287
     27 H          -2.0846    2.2081   -2.2013 H       1  UNL1        0.0269
     28 H          -0.5869    1.2873   -2.2298 H       1  UNL1        0.0269
     29 H           1.4926    2.2679   -0.9746 H       1  UNL1        0.0301
     30 H           1.2653    3.6395    0.0713 H       1  UNL1        0.0301
     31 H          -1.4067   -1.0538   -2.4463 H       1  UNL1        0.0329
     32 H          -1.9132   -2.3030   -1.3242 H       1  UNL1        0.0329
     33 H          -1.6865   -1.8704    1.4722 H       1  UNL1        0.0427
     34 H          -2.8580   -1.1124    2.5361 H       1  UNL1        0.0427
     35 H          -0.1626    3.7249   -1.9742 H       1  UNL1        0.0267
     36 H          -1.1253    3.7624   -0.4990 H       1  UNL1        0.0267
     37 H          -3.5578   -2.7439    0.0659 H       1  UNL1        0.0391
     38 H          -4.7541   -1.5855   -0.5555 H       1  UNL1        0.0391
     39 H          -4.7006   -1.9527    1.1599 H       1  UNL1        0.0391
     40 H           0.6841   -3.0065   -1.8670 H       1  UNL1        0.0622
     41 H           2.9755   -2.7593   -0.9792 H       1  UNL1        0.0655
     42 H           4.3230    0.9749   -0.3455 H       1  UNL1        0.0660
     43 H           4.8268   -0.5199   -1.2022 H       1  UNL1        0.0660
     44 H           5.6817    0.0041    0.2667 H       1  UNL1        0.0660
@<TRIPOS>BOND
     1     1     7    1
     2     1    16    1
     3     2    19    1
     4     2    21    1
     5     3     6    1
     6     3    13    1
     7     3    17    1
     8     4     5    1
     9     4     7    1
    10     4     8    1
    11     4     9    1
    12     5     6    1
    13     5    10    1
    14     5    22    1
    15     6    12    1
    16     6    23    1
    17     7    11    1
    18     7    24    1
    19     8    13    1
    20     8    25    1
    21     8    26    1
    22     9    15   ar
    23     9    16   ar
    24    10    14    1
    25    10    27    1
    26    10    28    1
    27    11    14    1
    28    11    29    1
    29    11    30    1
    30    12    15    1
    31    12    31    1
    32    12    32    1
    33    13    33    1
    34    13    34    1
    35    14    35    1
    36    14    36    1
    37    15    18   ar
    38    16    19   ar
    39    17    37    1
    40    17    38    1
    41    17    39    1
    42    18    20   ar
    43    18    40    1
    44    19    20   ar
    45    20    41    1
    46    21    42    1
    47    21    43    1
    48    21    44    1
@<TRIPOS>MOLECULE
520915
 50 54 0 0 0
SMALL
GASTEIGER

@<TRIPOS>ATOM
      1 O           0.3888   -1.7424   -1.2949 O.3     1  UNL1       -0.4803
      2 O          -3.0324   -0.6737   -0.6085 O.3     1  UNL1       -0.4578
      3 O           2.8230   -3.1473   -0.5705 O.3     1  UNL1       -0.4914
      4 O          -4.2947   -2.1564    0.6345 O.2     1  UNL1       -0.2512
      5 N           0.2135    3.4406   -0.3436 N.3     1  UNL1       -0.3018
      6 C          -0.0973    0.5785   -0.7236 C.3     1  UNL1        0.0453
      7 C          -0.8434    1.3506    0.3697 C.3     1  UNL1       -0.0117
      8 C          -0.7006   -0.7649   -1.1838 C.3     1  UNL1        0.1470
      9 C           0.0905    2.5245    0.8148 C.3     1  UNL1        0.0178
     10 C           0.1897    1.5146   -1.9176 C.3     1  UNL1       -0.0266
     11 C           1.1710    0.0696   -0.1404 C.ar    1  UNL1        0.0113
     12 C          -1.3252    0.4778    1.5486 C.3     1  UNL1       -0.0444
     13 C          -1.7987   -1.2958   -0.2482 C.3     1  UNL1        0.1405
     14 C           1.4640    2.0166    1.3866 C.3     1  UNL1       -0.0113
     15 C          -1.5131   -1.0109    1.2260 C.3     1  UNL1       -0.0118
     16 C           0.8649    2.8312   -1.5059 C.3     1  UNL1       -0.0002
     17 C           1.9578    0.7223    0.7918 C.ar    1  UNL1       -0.0383
     18 C           1.4167   -1.2201   -0.5550 C.ar    1  UNL1        0.1666
     19 C           0.8167    4.7255   -0.0055 C.3     1  UNL1       -0.0125
     20 C           3.1179    0.0692    1.2099 C.ar    1  UNL1       -0.0546
     21 C           2.5575   -1.8824   -0.1579 C.ar    1  UNL1        0.1618
     22 C           3.4237   -1.2171    0.7201 C.ar    1  UNL1       -0.0160
     23 C          -4.1213   -1.0612    0.1172 C.2     1  UNL1        0.3043
     24 C          -5.1021    0.0692    0.1966 C.3     1  UNL1        0.0332
     25 C           2.3332   -4.2183    0.2399 C.3     1  UNL1        0.0790
     26 H          -1.7527    1.7818   -0.0768 H       1  UNL1        0.0326
     27 H          -1.1249   -0.6662   -2.1916 H       1  UNL1        0.0780
     28 H          -0.4240    3.0757    1.6134 H       1  UNL1        0.0469
     29 H          -0.7619    1.7530   -2.4121 H       1  UNL1        0.0287
     30 H           0.8156    1.0170   -2.6698 H       1  UNL1        0.0287
     31 H          -2.2824    0.8876    1.8971 H       1  UNL1        0.0270
     32 H          -0.6558    0.5595    2.4125 H       1  UNL1        0.0270
     33 H          -1.8947   -2.3790   -0.3986 H       1  UNL1        0.0772
     34 H           1.3268    1.8460    2.4628 H       1  UNL1        0.0329
     35 H           2.2449    2.7783    1.2979 H       1  UNL1        0.0329
     36 H          -0.5998   -1.5471    1.5134 H       1  UNL1        0.0302
     37 H          -2.2882   -1.4097    1.8886 H       1  UNL1        0.0302
     38 H           1.9321    2.6612   -1.3179 H       1  UNL1        0.0427
     39 H           0.8098    3.5166   -2.3611 H       1  UNL1        0.0427
     40 H           0.7095    5.4244   -0.8428 H       1  UNL1        0.0391
     41 H           1.8827    4.6493    0.2301 H       1  UNL1        0.0391
     42 H           0.3049    5.1843    0.8475 H       1  UNL1        0.0391
     43 H           3.7780    0.5331    1.9379 H       1  UNL1        0.0622
     44 H           4.3294   -1.7107    1.0652 H       1  UNL1        0.0655
     45 H          -5.4526    0.3262   -0.8060 H       1  UNL1        0.0342
     46 H          -4.6350    0.9340    0.6743 H       1  UNL1        0.0342
     47 H          -5.9614   -0.2381    0.7994 H       1  UNL1        0.0342
     48 H           1.2419   -4.1750    0.3135 H       1  UNL1        0.0660
     49 H           2.7804   -4.1769    1.2379 H       1  UNL1        0.0660
     50 H           2.6163   -5.1623   -0.2334 H       1  UNL1        0.0660
@<TRIPOS>BOND
     1     1     8    1
     2     1    18    1
     3     2    13    1
     4     2    23    1
     5     3    21    1
     6     3    25    1
     7     4    23    2
     8     5     9    1
     9     5    16    1
    10     5    19    1
    11     6     7    1
    12     6     8    1
    13     6    10    1
    14     6    11    1
    15     7     9    1
    16     7    12    1
    17     7    26    1
    18     8    13    1
    19     8    27    1
    20     9    14    1
    21     9    28    1
    22    10    16    1
    23    10    29    1
    24    10    30    1
    25    11    17   ar
    26    11    18   ar
    27    12    15    1
    28    12    31    1
    29    12    32    1
    30    13    15    1
    31    13    33    1
    32    14    17    1
    33    14    34    1
    34    14    35    1
    35    15    36    1
    36    15    37    1
    37    16    38    1
    38    16    39    1
    39    17    20   ar
    40    18    21   ar
    41    19    40    1
    42    19    41    1
    43    19    42    1
    44    20    22   ar
    45    20    43    1
    46    21    22   ar
    47    22    44    1
    48    23    24    1
    49    24    45    1
    50    24    46    1
    51    24    47    1
    52    25    48    1
    53    25    49    1
    54    25    50    1
@<TRIPOS>MOLECULE
5462437
 43 47 0 0 0
SMALL
GASTEIGER

@<TRIPOS>ATOM
      1 O          -1.6708    1.1985   -0.9909 O.3     1  UNL1       -0.4811
      2 O          -0.8270    2.5089    1.3335 O.3     1  UNL1       -0.3878
      3 O          -3.9837   -0.3377   -0.0954 O.3     1  UNL1       -0.4914
      4 N           3.0434   -1.1301   -0.5631 N.3     1  UNL1       -0.2984
      5 C           0.6419    0.5200   -0.6292 C.3     1  UNL1        0.0624
      6 C          -0.2952    1.7078   -0.9298 C.3     1  UNL1        0.1397
      7 C           1.7746    0.7345    0.3296 C.2     1  UNL1       -0.0418
      8 C           2.4342   -0.5933    0.6782 C.3     1  UNL1        0.0363
      9 C           1.2008   -0.1293   -1.9151 C.3     1  UNL1       -0.0231
     10 C          -0.3478   -0.3663    0.0284 C.ar    1  UNL1        0.0150
     11 C          -0.1783    2.8479    0.1058 C.3     1  UNL1        0.0965
     12 C           1.3870   -1.5489    1.3741 C.3     1  UNL1       -0.0078
     13 C           2.0680   -1.3731   -1.6344 C.3     1  UNL1        0.0004
     14 C          -0.0461   -1.3875    0.9138 C.ar    1  UNL1       -0.0377
     15 C          -1.6333    0.0240   -0.2771 C.ar    1  UNL1        0.1668
     16 C           2.0944    1.9504    0.7938 C.2     1  UNL1       -0.0798
     17 C           1.2885    3.1731    0.4358 C.3     1  UNL1       -0.0048
     18 C          -1.1221   -2.1203    1.4120 C.ar    1  UNL1       -0.0545
     19 C          -2.7086   -0.6914    0.1986 C.ar    1  UNL1        0.1618
     20 C           3.8882   -2.2976   -0.3356 C.3     1  UNL1       -0.0122
     21 C          -2.4419   -1.7848    1.0377 C.ar    1  UNL1       -0.0160
     22 C          -4.5662   -0.9048   -1.2710 C.3     1  UNL1        0.0790
     23 H          -0.0625    2.1279   -1.9171 H       1  UNL1        0.0771
     24 H           3.2471   -0.4108    1.3937 H       1  UNL1        0.0512
     25 H           1.8157    0.6091   -2.4486 H       1  UNL1        0.0290
     26 H           0.3906   -0.4132   -2.5995 H       1  UNL1        0.0290
     27 H          -0.6833    3.7442   -0.2718 H       1  UNL1        0.0634
     28 H           1.4014   -1.3133    2.4474 H       1  UNL1        0.0332
     29 H           1.6824   -2.5989    1.2840 H       1  UNL1        0.0332
     30 H           1.4254   -2.2296   -1.3962 H       1  UNL1        0.0427
     31 H           2.5958   -1.6301   -2.5612 H       1  UNL1        0.0427
     32 H           2.9355    2.0749    1.4686 H       1  UNL1        0.0573
     33 H           1.3177    3.8589    1.2912 H       1  UNL1        0.0334
     34 H           1.7692    3.6754   -0.4114 H       1  UNL1        0.0334
     35 H          -0.9567   -2.9348    2.1119 H       1  UNL1        0.0622
     36 H           4.4552   -2.5354   -1.2427 H       1  UNL1        0.0391
     37 H           3.3183   -3.1889   -0.0554 H       1  UNL1        0.0391
     38 H           4.6270   -2.0973    0.4481 H       1  UNL1        0.0391
     39 H          -3.2666   -2.3662    1.4445 H       1  UNL1        0.0655
     40 H          -1.7717    2.3886    1.1377 H       1  UNL1        0.2100
     41 H          -3.9998   -0.6078   -2.1593 H       1  UNL1        0.0660
     42 H          -5.5880   -0.5270   -1.3629 H       1  UNL1        0.0660
     43 H          -4.5998   -1.9960   -1.1921 H       1  UNL1        0.0660
@<TRIPOS>BOND
     1     1     6    1
     2     1    15    1
     3     2    11    1
     4     2    40    1
     5     3    19    1
     6     3    22    1
     7     4     8    1
     8     4    13    1
     9     4    20    1
    10     5     6    1
    11     5     7    1
    12     5     9    1
    13     5    10    1
    14     6    11    1
    15     6    23    1
    16     7     8    1
    17     7    16    2
    18     8    12    1
    19     8    24    1
    20     9    13    1
    21     9    25    1
    22     9    26    1
    23    10    14   ar
    24    10    15   ar
    25    11    17    1
    26    11    27    1
    27    12    14    1
    28    12    28    1
    29    12    29    1
    30    13    30    1
    31    13    31    1
    32    14    18   ar
    33    15    19   ar
    34    16    17    1
    35    16    32    1
    36    17    33    1
    37    17    34    1
    38    18    21   ar
    39    18    35    1
    40    19    21   ar
    41    20    36    1
    42    20    37    1
    43    20    38    1
    44    21    39    1
    45    22    41    1
    46    22    42    1
    47    22    43    1
@<TRIPOS>MOLECULE
3063
 45 49 0 0 0
SMALL
GASTEIGER

@<TRIPOS>ATOM
      1 O           1.7204    0.7153    1.1996 O.3     1  UNL1       -0.4814
      2 O           1.7578    3.5686    0.1075 O.3     1  UNL1       -0.3881
      3 O           3.6230   -1.4199    0.6012 O.3     1  UNL1       -0.4914
      4 N          -3.2946   -0.4747    0.5068 N.3     1  UNL1       -0.3018
      5 C          -0.6237    0.6666    0.6062 C.3     1  UNL1        0.0443
      6 C          -1.6868    1.1203   -0.3988 C.3     1  UNL1       -0.0117
      7 C           0.5813    1.5913    0.8607 C.3     1  UNL1        0.1360
      8 C          -2.5603   -0.1267   -0.7344 C.3     1  UNL1        0.0178
      9 C          -1.3398    0.2318    1.9041 C.3     1  UNL1       -0.0266
     10 C           0.1430   -0.4853    0.0616 C.ar    1  UNL1        0.0113
     11 C          -1.0917    1.8302   -1.6193 C.3     1  UNL1       -0.0454
     12 C           1.0001    2.4500   -0.3535 C.3     1  UNL1        0.0928
     13 C          -1.7247   -1.2984   -1.3602 C.3     1  UNL1       -0.0113
     14 C          -0.1838    2.9707   -1.1631 C.3     1  UNL1       -0.0230
     15 C          -2.4345   -0.8201    1.6441 C.3     1  UNL1       -0.0002
     16 C          -0.3375   -1.4549   -0.7962 C.ar    1  UNL1       -0.0383
     17 C           1.4518   -0.4380    0.4981 C.ar    1  UNL1        0.1665
     18 C          -4.3391   -1.4733    0.3051 C.3     1  UNL1       -0.0125
     19 C           0.5484   -2.4718   -1.1517 C.ar    1  UNL1       -0.0546
     20 C           2.3376   -1.4391    0.1727 C.ar    1  UNL1        0.1618
     21 C           1.8701   -2.4710   -0.6544 C.ar    1  UNL1       -0.0160
     22 C           4.5832   -0.7716   -0.2361 C.3     1  UNL1        0.0790
     23 H          -2.3304    1.8686    0.0902 H       1  UNL1        0.0326
     24 H           0.4070    2.2378    1.7296 H       1  UNL1        0.0768
     25 H          -3.3091    0.1801   -1.4771 H       1  UNL1        0.0469
     26 H          -1.8009    1.1148    2.3669 H       1  UNL1        0.0287
     27 H          -0.6323   -0.1698    2.6410 H       1  UNL1        0.0287
     28 H          -1.9019    2.2348   -2.2372 H       1  UNL1        0.0270
     29 H          -0.5249    1.1417   -2.2556 H       1  UNL1        0.0270
     30 H           1.6666    1.8810   -1.0134 H       1  UNL1        0.0630
     31 H          -1.6140   -1.0870   -2.4322 H       1  UNL1        0.0329
     32 H          -2.2599   -2.2504   -1.2896 H       1  UNL1        0.0329
     33 H           0.1836    3.5216   -2.0376 H       1  UNL1        0.0291
     34 H          -0.7526    3.6997   -0.5717 H       1  UNL1        0.0291
     35 H          -1.9736   -1.8051    1.4992 H       1  UNL1        0.0427
     36 H          -3.0439   -0.8984    2.5532 H       1  UNL1        0.0427
     37 H          -3.9396   -2.4735    0.1101 H       1  UNL1        0.0391
     38 H          -4.9935   -1.1919   -0.5272 H       1  UNL1        0.0391
     39 H          -4.9775   -1.5365    1.1936 H       1  UNL1        0.0391
     40 H           0.2339   -3.2636   -1.8264 H       1  UNL1        0.0622
     41 H           2.0348    4.0784   -0.6729 H       1  UNL1        0.2099
     42 H           2.5415   -3.2754   -0.9467 H       1  UNL1        0.0655
     43 H           4.3229    0.2830   -0.3720 H       1  UNL1        0.0660
     44 H           4.6439   -1.2733   -1.2069 H       1  UNL1        0.0660
     45 H           5.5594   -0.8324    0.2526 H       1  UNL1        0.0660
@<TRIPOS>BOND
     1     1     7    1
     2     1    17    1
     3     2    12    1
     4     2    41    1
     5     3    20    1
     6     3    22    1
     7     4     8    1
     8     4    15    1
     9     4    18    1
    10     5     6    1
    11     5     7    1
    12     5     9    1
    13     5    10    1
    14     6     8    1
    15     6    11    1
    16     6    23    1
    17     7    12    1
    18     7    24    1
    19     8    13    1
    20     8    25    1
    21     9    15    1
    22     9    26    1
    23     9    27    1
    24    10    16   ar
    25    10    17   ar
    26    11    14    1
    27    11    28    1
    28    11    29    1
    29    12    14    1
    30    12    30    1
    31    13    16    1
    32    13    31    1
    33    13    32    1
    34    14    33    1
    35    14    34    1
    36    15    35    1
    37    15    36    1
    38    16    19   ar
    39    17    20   ar
    40    18    37    1
    41    18    38    1
    42    18    39    1
    43    19    21   ar
    44    19    40    1
    45    20    21   ar
    46    21    42    1
    47    22    43    1
    48    22    44    1
    49    22    45    1
@<TRIPOS>MOLECULE
5284543
 45 49 0 0 0
SMALL
GASTEIGER

@<TRIPOS>ATOM
      1 O           1.5130    1.0870    1.3332 O.3     1  UNL1       -0.4814
      2 O           1.4079    2.5389   -0.9498 O.3     1  UNL1       -0.3881
      3 O           3.8142   -0.5467    0.5720 O.3     1  UNL1       -0.4914
      4 N          -3.1303   -1.0876    0.4603 N.3     1  UNL1       -0.3018
      5 C          -0.7730    0.5982    0.7058 C.3     1  UNL1        0.0443
      6 C          -1.9312    0.9156   -0.2418 C.3     1  UNL1       -0.0117
      7 C           0.2145    1.7244    1.0659 C.3     1  UNL1        0.1360
      8 C          -2.5112   -0.4479   -0.7269 C.3     1  UNL1        0.0178
      9 C          -1.3589   -0.1182    1.9457 C.3     1  UNL1       -0.0266
     10 C           0.2150   -0.3020    0.0589 C.ar    1  UNL1        0.0113
     11 C          -1.5477    1.8871   -1.3599 C.3     1  UNL1       -0.0454
     12 C           0.3827    2.8385   -0.0006 C.3     1  UNL1        0.0928
     13 C          -1.4469   -1.3270   -1.4737 C.3     1  UNL1       -0.0113
     14 C          -0.9099    3.1466   -0.7606 C.3     1  UNL1       -0.0230
     15 C          -2.2007   -1.3512    1.5645 C.3     1  UNL1       -0.0002
     16 C          -0.0555   -1.2536   -0.9036 C.ar    1  UNL1       -0.0383
     17 C           1.4861   -0.0310    0.5276 C.ar    1  UNL1        0.1665
     18 C          -3.9252   -2.2677    0.1384 C.3     1  UNL1       -0.0125
     19 C           1.0220   -2.0222   -1.3429 C.ar    1  UNL1       -0.0546
     20 C           2.5599   -0.7881    0.1200 C.ar    1  UNL1        0.1618
     21 C           2.3152   -1.8016   -0.8187 C.ar    1  UNL1       -0.0160
     22 C           4.8600   -1.3917    0.0862 C.3     1  UNL1        0.0790
     23 H          -2.7157    1.4344    0.3320 H       1  UNL1        0.0326
     24 H          -0.1159    2.2044    1.9963 H       1  UNL1        0.0768
     25 H          -3.3212   -0.2332   -1.4369 H       1  UNL1        0.0469
     26 H          -1.9954    0.5883    2.4957 H       1  UNL1        0.0287
     27 H          -0.5709   -0.4308    2.6431 H       1  UNL1        0.0287
     28 H          -2.4489    2.1725   -1.9160 H       1  UNL1        0.0270
     29 H          -0.8724    1.4249   -2.0868 H       1  UNL1        0.0270
     30 H           0.7250    3.7472    0.5075 H       1  UNL1        0.0630
     31 H          -1.3894   -0.9655   -2.5091 H       1  UNL1        0.0329
     32 H          -1.7662   -2.3723   -1.5316 H       1  UNL1        0.0329
     33 H          -0.7004    3.8500   -1.5753 H       1  UNL1        0.0291
     34 H          -1.6255    3.6305   -0.0848 H       1  UNL1        0.0291
     35 H          -1.5370   -2.1905    1.3223 H       1  UNL1        0.0427
     36 H          -2.7667   -1.6560    2.4537 H       1  UNL1        0.0427
     37 H          -3.3129   -3.1247   -0.1594 H       1  UNL1        0.0391
     38 H          -4.6368   -2.0524   -0.6662 H       1  UNL1        0.0391
     39 H          -4.5215   -2.5697    1.0069 H       1  UNL1        0.0391
     40 H           0.8773   -2.7867   -2.1017 H       1  UNL1        0.0622
     41 H           1.1327    1.7711   -1.4759 H       1  UNL1        0.2099
     42 H           3.0977   -2.4442   -1.2114 H       1  UNL1        0.0655
     43 H           4.9970   -1.2757   -0.9941 H       1  UNL1        0.0660
     44 H           4.6960   -2.4361    0.3721 H       1  UNL1        0.0660
     45 H           5.7886   -1.0669    0.5665 H       1  UNL1        0.0660
@<TRIPOS>BOND
     1     1     7    1
     2     1    17    1
     3     2    12    1
     4     2    41    1
     5     3    20    1
     6     3    22    1
     7     4     8    1
     8     4    15    1
     9     4    18    1
    10     5     6    1
    11     5     7    1
    12     5     9    1
    13     5    10    1
    14     6     8    1
    15     6    11    1
    16     6    23    1
    17     7    12    1
    18     7    24    1
    19     8    13    1
    20     8    25    1
    21     9    15    1
    22     9    26    1
    23     9    27    1
    24    10    16   ar
    25    10    17   ar
    26    11    14    1
    27    11    28    1
    28    11    29    1
    29    12    14    1
    30    12    30    1
    31    13    16    1
    32    13    31    1
    33    13    32    1
    34    14    33    1
    35    14    34    1
    36    15    35    1
    37    15    36    1
    38    16    19   ar
    39    17    20   ar
    40    18    37    1
    41    18    38    1
    42    18    39    1
    43    19    21   ar
    44    19    40    1
    45    20    21   ar
    46    21    42    1
    47    22    43    1
    48    22    44    1
    49    22    45    1
@<TRIPOS>MOLECULE
54541127
 44 48 0 0 0
SMALL
GASTEIGER

@<TRIPOS>ATOM
      1 O           1.7568    1.1430    1.1173 O.3     1  UNL1       -0.4811
      2 O          -1.5918   -1.3738   -2.4265 O.3     1  UNL1       -0.3856
      3 O           2.0031    3.1683   -0.5080 O.3     1  UNL1       -0.3841
      4 O           3.8145   -0.8186    0.5357 O.3     1  UNL1       -0.4914
      5 N          -3.2245   -0.4660    0.7876 N.3     1  UNL1       -0.2990
      6 C          -0.6270    0.8255    0.7363 C.3     1  UNL1        0.0482
      7 C          -1.7155    1.1103   -0.3089 C.3     1  UNL1        0.0088
      8 C          -2.5237   -0.2185   -0.4962 C.3     1  UNL1        0.0473
      9 C           0.4983    1.8728    0.9074 C.3     1  UNL1        0.1399
     10 C          -1.2903    0.4414    2.0741 C.3     1  UNL1       -0.0263
     11 C           0.2197   -0.2994    0.2401 C.ar    1  UNL1        0.0140
     12 C          -1.6331   -1.4145   -0.9961 C.3     1  UNL1        0.0966
     13 C          -2.3247   -0.6861    1.9240 C.3     1  UNL1       -0.0001
     14 C          -0.2069   -1.3797   -0.5116 C.ar    1  UNL1       -0.0101
     15 C           0.6286    2.8761   -0.2680 C.3     1  UNL1        0.1110
     16 C          -1.1356    1.6870   -1.5749 C.2     1  UNL1       -0.0798
     17 C           1.5453   -0.0819    0.5444 C.ar    1  UNL1        0.1666
     18 C          -0.0523    2.4770   -1.5497 C.2     1  UNL1       -0.0559
     19 C           0.7549   -2.3366   -0.8471 C.ar    1  UNL1       -0.0521
     20 C          -4.2409   -1.5094    0.7003 C.3     1  UNL1       -0.0124
     21 C           2.5093   -1.0124    0.2247 C.ar    1  UNL1        0.1618
     22 C           2.0998   -2.1600   -0.4652 C.ar    1  UNL1       -0.0159
     23 C           4.7361   -1.8446    0.1603 C.3     1  UNL1        0.0790
     24 H          -2.4055    1.8770    0.0758 H       1  UNL1        0.0369
     25 H          -3.2950   -0.0173   -1.2530 H       1  UNL1        0.0497
     26 H           0.3430    2.4576    1.8234 H       1  UNL1        0.0772
     27 H          -1.7952    1.3273    2.4828 H       1  UNL1        0.0287
     28 H          -0.5422    0.1383    2.8180 H       1  UNL1        0.0287
     29 H          -2.0726   -2.3795   -0.7261 H       1  UNL1        0.0659
     30 H          -1.8130   -1.6527    1.8391 H       1  UNL1        0.0427
     31 H          -2.9082   -0.7288    2.8523 H       1  UNL1        0.0427
     32 H           0.1614    3.8190    0.0451 H       1  UNL1        0.0675
     33 H          -1.6356    1.4956   -2.5192 H       1  UNL1        0.0573
     34 H           0.3022    2.9102   -2.4807 H       1  UNL1        0.0596
     35 H           0.4772   -3.2132   -1.4267 H       1  UNL1        0.0622
     36 H          -4.9229   -1.3208   -0.1360 H       1  UNL1        0.0391
     37 H          -4.8565   -1.5131    1.6070 H       1  UNL1        0.0391
     38 H          -3.8162   -2.5111    0.5821 H       1  UNL1        0.0391
     39 H          -2.5013   -1.4962   -2.7483 H       1  UNL1        0.2103
     40 H           2.7841   -2.9468   -0.7674 H       1  UNL1        0.0655
     41 H           2.0480    3.8520   -1.1982 H       1  UNL1        0.2104
     42 H           5.7281   -1.5287    0.4991 H       1  UNL1        0.0660
     43 H           4.7872   -1.9569   -0.9279 H       1  UNL1        0.0660
     44 H           4.5089   -2.7905    0.6633 H       1  UNL1        0.0660
@<TRIPOS>BOND
     1     1     9    1
     2     1    17    1
     3     2    12    1
     4     2    39    1
     5     3    15    1
     6     3    41    1
     7     4    21    1
     8     4    23    1
     9     5     8    1
    10     5    13    1
    11     5    20    1
    12     6     7    1
    13     6     9    1
    14     6    10    1
    15     6    11    1
    16     7     8    1
    17     7    16    1
    18     7    24    1
    19     8    12    1
    20     8    25    1
    21     9    15    1
    22     9    26    1
    23    10    13    1
    24    10    27    1
    25    10    28    1
    26    11    14   ar
    27    11    17   ar
    28    12    14    1
    29    12    29    1
    30    13    30    1
    31    13    31    1
    32    14    19   ar
    33    15    18    1
    34    15    32    1
    35    16    18    2
    36    16    33    1
    37    17    21   ar
    38    18    34    1
    39    19    22   ar
    40    19    35    1
    41    20    36    1
    42    20    37    1
    43    20    38    1
    44    21    22   ar
    45    22    40    1
    46    23    42    1
    47    23    43    1
    48    23    44    1
@<TRIPOS>MOLECULE
628577
 46 50 0 0 0
SMALL
GASTEIGER

@<TRIPOS>ATOM
      1 O          -1.6146   -0.4099    1.3175 O.3     1  UNL1       -0.4811
      2 O          -2.3582   -2.5881    0.0839 O.3     1  UNL1       -0.3721
      3 O          -3.3489    1.7850    0.5394 O.3     1  UNL1       -0.4914
      4 N           3.5136    0.1844    0.3861 N.3     1  UNL1       -0.3015
      5 C           0.7419   -0.6050    0.7337 C.3     1  UNL1        0.0480
      6 C           1.6587   -1.2446   -0.3202 C.3     1  UNL1        0.0064
      7 C           2.6584   -0.1352   -0.7826 C.3     1  UNL1        0.0213
      8 C          -0.5263   -1.3850    1.1524 C.3     1  UNL1        0.1401
      9 C           1.5884   -0.1504    1.9390 C.3     1  UNL1       -0.0263
     10 C           0.0586    0.5687    0.1133 C.ar    1  UNL1        0.0116
     11 C           1.9382    1.0976   -1.4297 C.3     1  UNL1       -0.0110
     12 C           2.7781    0.7336    1.5296 C.3     1  UNL1       -0.0001
     13 C          -0.9374   -2.5149    0.1724 C.3     1  UNL1        0.1140
     14 C           0.5910    1.4179   -0.8399 C.ar    1  UNL1       -0.0383
     15 C           0.8657   -1.8801   -1.4336 C.2     1  UNL1       -0.0799
     16 C          -1.2497    0.6512    0.5338 C.ar    1  UNL1        0.1666
     17 C          -0.3303   -2.4420   -1.2034 C.2     1  UNL1       -0.0557
     18 C          -0.2181    2.4661   -1.2819 C.ar    1  UNL1       -0.0546
     19 C           4.6704    1.0084    0.0512 C.3     1  UNL1       -0.0124
     20 C          -2.0644    1.6814    0.1184 C.ar    1  UNL1        0.1618
     21 C          -1.5307    2.6062   -0.7883 C.ar    1  UNL1       -0.0160
     22 C          -2.7732   -3.7358   -0.6414 C.3     1  UNL1        0.0374
     23 C          -4.1110    2.8908    0.0503 C.3     1  UNL1        0.0790
     24 H           2.2389   -2.0601    0.1376 H       1  UNL1        0.0368
     25 H           3.3128   -0.5730   -1.5490 H       1  UNL1        0.0472
     26 H          -0.3896   -1.8396    2.1423 H       1  UNL1        0.0772
     27 H           1.9741   -1.0408    2.4536 H       1  UNL1        0.0287
     28 H           0.9791    0.3939    2.6720 H       1  UNL1        0.0287
     29 H           1.7759    0.8608   -2.4900 H       1  UNL1        0.0329
     30 H           2.5705    1.9905   -1.4083 H       1  UNL1        0.0329
     31 H           2.4295    1.7523    1.3193 H       1  UNL1        0.0427
     32 H           3.4486    0.8117    2.3946 H       1  UNL1        0.0427
     33 H          -0.5765   -3.4545    0.6157 H       1  UNL1        0.0678
     34 H           1.2964   -1.9217   -2.4293 H       1  UNL1        0.0573
     35 H          -0.8050   -2.9263   -2.0495 H       1  UNL1        0.0596
     36 H           0.1490    3.1652   -2.0286 H       1  UNL1        0.0622
     37 H           4.4013    2.0378   -0.2053 H       1  UNL1        0.0391
     38 H           5.2285    0.5762   -0.7867 H       1  UNL1        0.0391
     39 H           5.3645    1.0464    0.8984 H       1  UNL1        0.0391
     40 H          -2.0961    3.4454   -1.1818 H       1  UNL1        0.0655
     41 H          -2.1669   -4.6199   -0.4184 H       1  UNL1        0.0524
     42 H          -2.7980   -3.5359   -1.7161 H       1  UNL1        0.0524
     43 H          -3.8023   -3.9574   -0.3414 H       1  UNL1        0.0524
     44 H          -3.6772    3.8462    0.3641 H       1  UNL1        0.0660
     45 H          -5.1058    2.8238    0.5025 H       1  UNL1        0.0660
     46 H          -4.2452    2.8343   -1.0351 H       1  UNL1        0.0660
@<TRIPOS>BOND
     1     1     8    1
     2     1    16    1
     3     2    13    1
     4     2    22    1
     5     3    20    1
     6     3    23    1
     7     4     7    1
     8     4    12    1
     9     4    19    1
    10     5     6    1
    11     5     8    1
    12     5     9    1
    13     5    10    1
    14     6     7    1
    15     6    15    1
    16     6    24    1
    17     7    11    1
    18     7    25    1
    19     8    13    1
    20     8    26    1
    21     9    12    1
    22     9    27    1
    23     9    28    1
    24    10    14   ar
    25    10    16   ar
    26    11    14    1
    27    11    29    1
    28    11    30    1
    29    12    31    1
    30    12    32    1
    31    13    17    1
    32    13    33    1
    33    14    18   ar
    34    15    17    2
    35    15    34    1
    36    16    20   ar
    37    17    35    1
    38    18    21   ar
    39    18    36    1
    40    19    37    1
    41    19    38    1
    42    19    39    1
    43    20    21   ar
    44    21    40    1
    45    22    41    1
    46    22    42    1
    47    22    43    1
    48    23    44    1
    49    23    45    1
    50    23    46    1
@<TRIPOS>MOLECULE
3082222
 46 49 0 0 0
SMALL
GASTEIGER

@<TRIPOS>ATOM
      1 O          -0.8928    0.2322    1.7741 O.3     1  UNL1       -0.4810
      2 O          -1.6792   -2.2959    1.4552 O.3     1  UNL1       -0.3841
      3 O          -3.5183    1.4325    1.3000 O.3     1  UNL1       -0.4914
      4 N           3.8762    1.7373    0.6589 N.3     1  UNL1       -0.3083
      5 C           0.7058   -0.2890    0.0271 C.3     1  UNL1        0.0503
      6 C           0.2068   -0.6888    1.4358 C.3     1  UNL1        0.1401
      7 C           1.3388   -1.3699   -0.8819 C.3     1  UNL1        0.0088
      8 C          -0.6153    0.1545   -0.4928 C.ar    1  UNL1        0.0157
      9 C           1.6361    0.9434    0.1076 C.3     1  UNL1       -0.0261
     10 C          -0.2647   -2.1574    1.5939 C.3     1  UNL1        0.1110
     11 C          -1.4447    0.5258    0.5466 C.ar    1  UNL1        0.1669
     12 C           1.0715   -2.7820   -0.4420 C.2     1  UNL1       -0.0776
     13 C          -1.0116    0.1574   -1.8146 C.ar    1  UNL1       -0.0177
     14 C           0.9562   -1.1690   -2.3518 C.2     1  UNL1       -0.0756
     15 C           0.3793   -3.1241    0.6507 C.2     1  UNL1       -0.0557
     16 C           3.0077    0.5849    0.6450 C.3     1  UNL1       -0.0007
     17 C          -0.1003   -0.4509   -2.7816 C.2     1  UNL1       -0.0575
     18 C          -2.6924    1.0493    0.2964 C.ar    1  UNL1        0.1618
     19 C          -2.2710    0.6840   -2.0957 C.ar    1  UNL1       -0.0506
     20 C          -3.0971    1.1410   -1.0444 C.ar    1  UNL1       -0.0157
     21 C           3.9900    2.3321   -0.6798 C.3     1  UNL1       -0.0130
     22 C           5.2123    1.3887    1.1609 C.3     1  UNL1       -0.0130
     23 C          -4.7933    1.9641    0.9326 C.3     1  UNL1        0.0790
     24 H           0.9923   -0.5257    2.1813 H       1  UNL1        0.0772
     25 H           2.4258   -1.3182   -0.8871 H       1  UNL1        0.0395
     26 H           1.7003    1.3586   -0.9050 H       1  UNL1        0.0288
     27 H           1.1934    1.7341    0.7298 H       1  UNL1        0.0288
     28 H          -0.0321   -2.4635    2.6213 H       1  UNL1        0.0675
     29 H           1.4962   -3.5806   -1.0472 H       1  UNL1        0.0576
     30 H           1.5934   -1.6444   -3.0946 H       1  UNL1        0.0578
     31 H           0.2539   -4.1818    0.8701 H       1  UNL1        0.0596
     32 H           2.9118    0.2105    1.6698 H       1  UNL1        0.0427
     33 H           3.5110   -0.1987    0.0789 H       1  UNL1        0.0427
     34 H          -0.3200   -0.3541   -3.8385 H       1  UNL1        0.0621
     35 H          -2.6389    0.7279   -3.1177 H       1  UNL1        0.0625
     36 H          -1.9111   -3.2198    1.6522 H       1  UNL1        0.2104
     37 H          -4.0646    1.5333   -1.3434 H       1  UNL1        0.0655
     38 H           3.0854    2.8809   -0.9596 H       1  UNL1        0.0391
     39 H           4.2238    1.5887   -1.4507 H       1  UNL1        0.0391
     40 H           4.7867    3.0863   -0.6950 H       1  UNL1        0.0391
     41 H           5.8385    2.2843    1.2411 H       1  UNL1        0.0391
     42 H           5.7218    0.6658    0.5134 H       1  UNL1        0.0391
     43 H           5.1447    0.9637    2.1687 H       1  UNL1        0.0391
     44 H          -4.6897    2.8817    0.3437 H       1  UNL1        0.0660
     45 H          -5.3122    2.2312    1.8588 H       1  UNL1        0.0660
     46 H          -5.4069    1.2135    0.4233 H       1  UNL1        0.0660
@<TRIPOS>BOND
     1     1     6    1
     2     1    11    1
     3     2    10    1
     4     2    36    1
     5     3    18    1
     6     3    23    1
     7     4    16    1
     8     4    21    1
     9     4    22    1
    10     5     6    1
    11     5     7    1
    12     5     8    1
    13     5     9    1
    14     6    10    1
    15     6    24    1
    16     7    12    1
    17     7    14    1
    18     7    25    1
    19     8    11   ar
    20     8    13   ar
    21     9    16    1
    22     9    26    1
    23     9    27    1
    24    10    15    1
    25    10    28    1
    26    11    18   ar
    27    12    15    2
    28    12    29    1
    29    13    17    1
    30    13    19   ar
    31    14    17    2
    32    14    30    1
    33    15    31    1
    34    16    32    1
    35    16    33    1
    36    17    34    1
    37    18    20   ar
    38    19    20   ar
    39    19    35    1
    40    20    37    1
    41    21    38    1
    42    21    39    1
    43    21    40    1
    44    22    41    1
    45    22    42    1
    46    22    43    1
    47    23    44    1
    48    23    45    1
    49    23    46    1
@<TRIPOS>MOLECULE
5362446
 44 48 0 0 0
SMALL
GASTEIGER

@<TRIPOS>ATOM
      1 O           2.0839    0.5719    1.2545 O.3     1  UNL1       -0.4811
      2 O           2.8488    2.5994   -0.1957 O.3     1  UNL1       -0.3841
      3 O           3.8527   -1.6701    0.7226 O.3     1  UNL1       -0.5033
      4 N          -3.0468   -0.2868    0.3248 N.4     1  UNL1        0.2418
      5 C          -0.2595    0.6889    0.6012 C.3     1  UNL1        0.0553
      6 C          -1.1650    1.2220   -0.5168 C.3     1  UNL1        0.0340
      7 C          -2.1355    0.0657   -0.9169 C.3     1  UNL1       -0.0082
      8 C          -1.0980    0.3304    1.8434 C.3     1  UNL1        0.0015
      9 C           0.9961    1.5188    0.9654 C.3     1  UNL1        0.1402
     10 C           0.4506   -0.5249    0.0987 C.ar    1  UNL1        0.0120
     11 C          -2.2249   -0.6657    1.5608 C.3     1  UNL1       -0.0294
     12 C          -1.3695   -1.1870   -1.4614 C.3     1  UNL1        0.0166
     13 C          -0.0484   -1.4567   -0.7928 C.ar    1  UNL1       -0.0345
     14 C          -0.3599    1.7668   -1.6716 C.2     1  UNL1       -0.0761
     15 C           1.4267    2.5483   -0.1120 C.3     1  UNL1        0.1110
     16 C           1.7476   -0.5589    0.5598 C.ar    1  UNL1        0.1663
     17 C          -3.9960   -1.4524   -0.0052 C.3     1  UNL1       -0.0412
     18 C          -3.9702    0.9027    0.6584 C.3     1  UNL1       -0.0412
     19 C           0.8305    2.3539   -1.4799 C.2     1  UNL1       -0.0558
     20 C           0.7796   -2.5322   -1.1197 C.ar    1  UNL1       -0.0544
     21 C           2.5798   -1.6147    0.2595 C.ar    1  UNL1        0.1588
     22 C           2.0775   -2.6194   -0.5771 C.ar    1  UNL1       -0.0162
     23 H          -1.7411    2.0798   -0.1531 H       1  UNL1        0.0408
     24 H          -2.8359    0.4050   -1.6911 H       1  UNL1        0.0861
     25 H          -1.5230    1.2500    2.2650 H       1  UNL1        0.0327
     26 H          -0.4632   -0.0919    2.6339 H       1  UNL1        0.0327
     27 H           0.8326    2.0714    1.8998 H       1  UNL1        0.0772
     28 H          -1.8195   -1.6692    1.3910 H       1  UNL1        0.0815
     29 H          -2.9129   -0.7277    2.4122 H       1  UNL1        0.0815
     30 H          -1.1415   -0.9827   -2.5170 H       1  UNL1        0.0368
     31 H          -1.9781   -2.0927   -1.4639 H       1  UNL1        0.0368
     32 H          -0.7782    1.7203   -2.6724 H       1  UNL1        0.0575
     33 H           1.1002    3.5407    0.2256 H       1  UNL1        0.0675
     34 H          -4.7350   -1.5370    0.7980 H       1  UNL1        0.0778
     35 H          -4.4874   -1.2364   -0.9580 H       1  UNL1        0.0778
     36 H          -3.4275   -2.3835   -0.0529 H       1  UNL1        0.0778
     37 H          -4.5109    1.1812   -0.2506 H       1  UNL1        0.0778
     38 H          -4.6718    0.5892    1.4379 H       1  UNL1        0.0778
     39 H          -3.3809    1.7405    1.0315 H       1  UNL1        0.0778
     40 H           1.3514    2.7738   -2.3358 H       1  UNL1        0.0596
     41 H           0.4414   -3.2939   -1.8171 H       1  UNL1        0.0622
     42 H           2.7028   -3.4655   -0.8530 H       1  UNL1        0.0655
     43 H           3.0869    3.3030   -0.8234 H       1  UNL1        0.2104
     44 H           4.2719   -2.4834    0.3924 H       1  UNL1        0.2923
@<TRIPOS>UNITY_ATOM_ATTR
4 1
charge 1
@<TRIPOS>BOND
     1     1     9    1
     2     1    16    1
     3     2    15    1
     4     2    43    1
     5     3    21    1
     6     3    44    1
     7     4     7    1
     8     4    11    1
     9     4    17    1
    10     4    18    1
    11     5     6    1
    12     5     8    1
    13     5     9    1
    14     5    10    1
    15     6     7    1
    16     6    14    1
    17     6    23    1
    18     7    12    1
    19     7    24    1
    20     8    11    1
    21     8    25    1
    22     8    26    1
    23     9    15    1
    24     9    27    1
    25    10    13   ar
    26    10    16   ar
    27    11    28    1
    28    11    29    1
    29    12    13    1
    30    12    30    1
    31    12    31    1
    32    13    20   ar
    33    14    19    2
    34    14    32    1
    35    15    19    1
    36    15    33    1
    37    16    21   ar
    38    17    34    1
    39    17    35    1
    40    17    36    1
    41    18    37    1
    42    18    38    1
    43    18    39    1
    44    19    40    1
    45    20    22   ar
    46    20    41    1
    47    21    22   ar
    48    22    42    1
@<TRIPOS>MOLECULE
5493042
 40 44 0 0 0
SMALL
GASTEIGER

@<TRIPOS>ATOM
      1 BR          0.4719    4.0320   -1.4308 Br      1  UNL1       -0.0499
      2 O          -2.0566   -0.7823    1.1415 O.3     1  UNL1       -0.4811
      3 O          -2.9279   -2.4610   -0.6582 O.3     1  UNL1       -0.3841
      4 O          -3.5519    1.6996    0.9556 O.3     1  UNL1       -0.5033
      5 N           3.1424   -0.4596    0.5241 N.3     1  UNL1       -0.3015
      6 C           0.2990   -1.0412    0.5796 C.3     1  UNL1        0.0480
      7 C           1.2065   -1.4589   -0.5875 C.3     1  UNL1        0.0064
      8 C           2.3201   -0.3683   -0.7068 C.3     1  UNL1        0.0213
      9 C          -1.0514   -1.7779    0.7405 C.3     1  UNL1        0.1399
     10 C           1.1225   -1.0127    1.8822 C.3     1  UNL1       -0.0263
     11 C          -0.2483    0.3170    0.2877 C.ar    1  UNL1        0.0126
     12 C           1.7423    1.0569   -1.0096 C.3     1  UNL1       -0.0100
     13 C           2.4031   -0.1706    1.7570 C.3     1  UNL1       -0.0001
     14 C           0.4017    1.3358   -0.3852 C.ar    1  UNL1       -0.0244
     15 C          -1.5124   -2.5554   -0.5200 C.3     1  UNL1        0.1110
     16 C           0.4162   -1.6911   -1.8498 C.2     1  UNL1       -0.0799
     17 C          -1.5630    0.4101    0.6856 C.ar    1  UNL1        0.1664
     18 C          -0.8342   -2.1749   -1.8094 C.2     1  UNL1       -0.0559
     19 C           4.3810    0.3087    0.4534 C.3     1  UNL1       -0.0124
     20 C          -0.2902    2.5381   -0.5417 C.ar    1  UNL1        0.0251
     21 C          -2.2632    1.5885    0.5496 C.ar    1  UNL1        0.1598
     22 C          -1.6075    2.6671   -0.0577 C.ar    1  UNL1       -0.0023
     23 H           1.6907   -2.4198   -0.3561 H       1  UNL1        0.0368
     24 H           2.9704   -0.6452   -1.5482 H       1  UNL1        0.0472
     25 H          -1.0023   -2.4950    1.5701 H       1  UNL1        0.0772
     26 H           1.4040   -2.0420    2.1429 H       1  UNL1        0.0287
     27 H           0.5282   -0.6299    2.7218 H       1  UNL1        0.0287
     28 H           1.6159    1.1247   -2.0988 H       1  UNL1        0.0329
     29 H           2.4590    1.8339   -0.7280 H       1  UNL1        0.0329
     30 H           2.1547    0.8959    1.8247 H       1  UNL1        0.0427
     31 H           3.0352   -0.3938    2.6256 H       1  UNL1        0.0427
     32 H          -1.2863   -3.6189   -0.3681 H       1  UNL1        0.0675
     33 H           0.8870   -1.5016   -2.8094 H       1  UNL1        0.0573
     34 H          -1.3540   -2.3720   -2.7426 H       1  UNL1        0.0596
     35 H           4.2156    1.3902    0.4859 H       1  UNL1        0.0391
     36 H           4.9376    0.0697   -0.4593 H       1  UNL1        0.0391
     37 H           5.0354    0.0467    1.2925 H       1  UNL1        0.0391
     38 H          -2.1467    3.6044   -0.1831 H       1  UNL1        0.0666
     39 H          -3.3226   -2.7382    0.1862 H       1  UNL1        0.2104
     40 H          -3.8267    0.8480    1.3383 H       1  UNL1        0.2923
@<TRIPOS>BOND
     1     1    20    1
     2     2     9    1
     3     2    17    1
     4     3    15    1
     5     3    39    1
     6     4    21    1
     7     4    40    1
     8     5     8    1
     9     5    13    1
    10     5    19    1
    11     6     7    1
    12     6     9    1
    13     6    10    1
    14     6    11    1
    15     7     8    1
    16     7    16    1
    17     7    23    1
    18     8    12    1
    19     8    24    1
    20     9    15    1
    21     9    25    1
    22    10    13    1
    23    10    26    1
    24    10    27    1
    25    11    14   ar
    26    11    17   ar
    27    12    14    1
    28    12    28    1
    29    12    29    1
    30    13    30    1
    31    13    31    1
    32    14    20   ar
    33    15    18    1
    34    15    32    1
    35    16    18    2
    36    16    33    1
    37    17    21   ar
    38    18    34    1
    39    19    35    1
    40    19    36    1
    41    19    37    1
    42    20    22   ar
    43    21    22   ar
    44    22    38    1
@<TRIPOS>MOLECULE
154732850
 55 58 0 0 0
SMALL
GASTEIGER

@<TRIPOS>ATOM
      1 O           1.8407   -0.5276    1.7317 O.3     1  UNL1       -0.4811
      2 O           0.8402    1.8431    0.7210 O.3     1  UNL1       -0.3666
      3 O           3.9478   -1.0969   -0.1960 O.3     1  UNL1       -0.4914
      4 O           0.0054    3.6188   -1.2769 O.3     1  UNL1       -0.3807
      5 N          -3.6874   -0.5704   -0.7364 N.3     1  UNL1       -0.3045
      6 C          -0.5190   -1.0571    1.3909 C.3     1  UNL1        0.0440
      7 C          -1.9185   -0.4783    1.0266 C.3     1  UNL1        0.0060
      8 C           0.4851   -0.1450    2.1424 C.3     1  UNL1        0.1398
      9 C          -2.2380   -0.5358   -0.5125 C.3     1  UNL1        0.0210
     10 C           0.3316   -1.3127    0.2018 C.ar    1  UNL1        0.0113
     11 C          -1.5939   -1.7386   -1.2496 C.3     1  UNL1       -0.0111
     12 C           0.2767    1.3689    1.9424 C.3     1  UNL1        0.1145
     13 C          -0.1104   -1.6919   -1.0481 C.ar    1  UNL1       -0.0383
     14 C          -0.6887   -2.3870    2.1618 C.3     1  UNL1       -0.0513
     15 C          -2.1441    0.9192    1.5615 C.2     1  UNL1       -0.0799
     16 C           1.6609   -1.0713    0.4827 C.ar    1  UNL1        0.1665
     17 C          -1.1697    1.7443    1.9650 C.2     1  UNL1       -0.0557
     18 C           0.8553   -1.9532   -2.0177 C.ar    1  UNL1       -0.0546
     19 C           2.6362   -1.3164   -0.4584 C.ar    1  UNL1        0.1618
     20 C           2.2221   -1.7771   -1.7166 C.ar    1  UNL1       -0.0160
     21 C          -4.0100   -0.0200   -2.0505 C.3     1  UNL1       -0.0127
     22 C          -4.1863   -1.9380   -0.6144 C.3     1  UNL1       -0.0127
     23 C           1.1423    3.2284    0.7935 C.3     1  UNL1        0.0719
     24 C           1.2520    3.7855   -0.6125 C.3     1  UNL1        0.0707
     25 C           4.8812   -1.3829   -1.2402 C.3     1  UNL1        0.0790
     26 C          -0.1115    4.4919   -2.3915 C.3     1  UNL1        0.0365
     27 H          -2.6605   -1.0879    1.5605 H       1  UNL1        0.0368
     28 H           0.4107   -0.3451    3.2207 H       1  UNL1        0.0772
     29 H          -1.8227    0.3872   -0.9476 H       1  UNL1        0.0471
     30 H          -1.8022   -1.7107   -2.3246 H       1  UNL1        0.0329
     31 H          -1.9068   -2.7146   -0.8622 H       1  UNL1        0.0329
     32 H           0.7955    1.8592    2.7780 H       1  UNL1        0.0678
     33 H          -1.2247   -2.2218    3.1034 H       1  UNL1        0.0240
     34 H           0.2741   -2.8499    2.4097 H       1  UNL1        0.0240
     35 H          -1.2565   -3.1195    1.5762 H       1  UNL1        0.0240
     36 H          -3.1709    1.2748    1.5994 H       1  UNL1        0.0573
     37 H          -1.4396    2.7363    2.3159 H       1  UNL1        0.0596
     38 H           0.5641   -2.2718   -3.0147 H       1  UNL1        0.0622
     39 H           2.9145   -1.9948   -2.5242 H       1  UNL1        0.0655
     40 H          -3.5918   -0.5925   -2.8846 H       1  UNL1        0.0391
     41 H          -3.6634    1.0164   -2.1343 H       1  UNL1        0.0391
     42 H          -5.0977    0.0116   -2.1842 H       1  UNL1        0.0391
     43 H          -3.8622   -2.4349    0.3062 H       1  UNL1        0.0391
     44 H          -3.9643   -2.5796   -1.4754 H       1  UNL1        0.0391
     45 H          -5.2811   -1.8999   -0.5476 H       1  UNL1        0.0391
     46 H           2.0906    3.3571    1.3264 H       1  UNL1        0.0583
     47 H           0.3623    3.7838    1.3257 H       1  UNL1        0.0583
     48 H           2.0158    3.2442   -1.1816 H       1  UNL1        0.0582
     49 H           1.5268    4.8454   -0.5594 H       1  UNL1        0.0582
     50 H           5.8802   -1.1611   -0.8513 H       1  UNL1        0.0660
     51 H           4.8675   -2.4444   -1.5095 H       1  UNL1        0.0660
     52 H           4.7208   -0.7343   -2.1078 H       1  UNL1        0.0660
     53 H          -1.0613    4.2852   -2.8921 H       1  UNL1        0.0524
     54 H          -0.1121    5.5356   -2.0625 H       1  UNL1        0.0524
     55 H           0.7034    4.3192   -3.1013 H       1  UNL1        0.0524
@<TRIPOS>BOND
     1     1     8    1
     2     1    16    1
     3     2    12    1
     4     2    23    1
     5     3    19    1
     6     3    25    1
     7     4    24    1
     8     4    26    1
     9     5     9    1
    10     5    21    1
    11     5    22    1
    12     6     7    1
    13     6     8    1
    14     6    10    1
    15     6    14    1
    16     7     9    1
    17     7    15    1
    18     7    27    1
    19     8    12    1
    20     8    28    1
    21     9    11    1
    22     9    29    1
    23    10    13   ar
    24    10    16   ar
    25    11    13    1
    26    11    30    1
    27    11    31    1
    28    12    17    1
    29    12    32    1
    30    13    18   ar
    31    14    33    1
    32    14    34    1
    33    14    35    1
    34    15    17    2
    35    15    36    1
    36    16    19   ar
    37    17    37    1
    38    18    20   ar
    39    18    38    1
    40    19    20   ar
    41    20    39    1
    42    21    40    1
    43    21    41    1
    44    21    42    1
    45    22    43    1
    46    22    44    1
    47    22    45    1
    48    23    24    1
    49    23    46    1
    50    23    47    1
    51    24    48    1
    52    24    49    1
    53    25    50    1
    54    25    51    1
    55    25    52    1
    56    26    53    1
    57    26    54    1
    58    26    55    1
@<TRIPOS>MOLECULE
154732849
 45 48 0 0 0
SMALL
GASTEIGER

@<TRIPOS>ATOM
      1 O          -1.8812    1.5287   -0.6376 O.3     1  UNL1       -0.4811
      2 O          -0.6611    1.9825    1.8013 O.3     1  UNL1       -0.3841
      3 O          -4.0794   -0.2043    0.1657 O.3     1  UNL1       -0.4914
      4 N           3.5548   -0.9458    0.3522 N.3     1  UNL1       -0.3045
      5 C           0.4018    0.7613   -1.0424 C.3     1  UNL1        0.0440
      6 C           1.8456    0.6851   -0.4629 C.3     1  UNL1        0.0060
      7 C          -0.4841    1.9760   -0.6621 C.3     1  UNL1        0.1396
      8 C           2.1224   -0.6290    0.3562 C.3     1  UNL1        0.0210
      9 C          -0.4976   -0.2884   -0.5017 C.ar    1  UNL1        0.0113
     10 C           1.3395   -1.8684   -0.1494 C.3     1  UNL1       -0.0111
     11 C          -0.1229    2.6632    0.6693 C.3     1  UNL1        0.1110
     12 C          -0.1261   -1.5603   -0.1202 C.ar    1  UNL1       -0.0383
     13 C           0.4487    0.6154   -2.5813 C.3     1  UNL1       -0.0513
     14 C           2.2282    1.9040    0.3481 C.2     1  UNL1       -0.0799
     15 C          -1.7877    0.1839   -0.3713 C.ar    1  UNL1        0.1665
     16 C           1.3550    2.7826    0.8567 C.2     1  UNL1       -0.0559
     17 C          -1.1355   -2.4250    0.2973 C.ar    1  UNL1       -0.0546
     18 C          -2.8042   -0.6475    0.0436 C.ar    1  UNL1        0.1618
     19 C          -2.4692   -1.9707    0.3657 C.ar    1  UNL1       -0.0160
     20 C           3.9035   -1.7284    1.5354 C.3     1  UNL1       -0.0127
     21 C           3.9104   -1.6687   -0.8664 C.3     1  UNL1       -0.0127
     22 C          -5.0609   -1.1465    0.6038 C.3     1  UNL1        0.0790
     23 H           2.5316    0.7132   -1.3207 H       1  UNL1        0.0368
     24 H          -0.4068    2.7364   -1.4518 H       1  UNL1        0.0771
     25 H           1.7964   -0.4229    1.3881 H       1  UNL1        0.0471
     26 H           1.5252   -2.7462    0.4790 H       1  UNL1        0.0329
     27 H           1.5571   -2.1358   -1.1895 H       1  UNL1        0.0329
     28 H          -0.5767    3.6613    0.6642 H       1  UNL1        0.0675
     29 H           0.9233   -0.3266   -2.8799 H       1  UNL1        0.0240
     30 H          -0.5515    0.6286   -3.0311 H       1  UNL1        0.0240
     31 H           1.0201    1.4362   -3.0297 H       1  UNL1        0.0240
     32 H           3.2866    2.0535    0.5477 H       1  UNL1        0.0573
     33 H           1.7246    3.6076    1.4590 H       1  UNL1        0.0596
     34 H          -0.9018   -3.4440    0.5929 H       1  UNL1        0.0622
     35 H          -3.1987   -2.6998    0.7053 H       1  UNL1        0.0655
     36 H          -0.4347    2.4975    2.5947 H       1  UNL1        0.2104
     37 H           4.9852   -1.9055    1.5592 H       1  UNL1        0.0391
     38 H           3.6660   -1.1758    2.4517 H       1  UNL1        0.0391
     39 H           3.4087   -2.7037    1.5821 H       1  UNL1        0.0391
     40 H           5.0044   -1.6787   -0.9534 H       1  UNL1        0.0391
     41 H           3.6031   -2.7211   -0.8746 H       1  UNL1        0.0391
     42 H           3.5570   -1.1764   -1.7787 H       1  UNL1        0.0391
     43 H          -5.1645   -1.9752   -0.1047 H       1  UNL1        0.0660
     44 H          -4.8531   -1.4959    1.6207 H       1  UNL1        0.0660
     45 H          -6.0222   -0.6234    0.6321 H       1  UNL1        0.0660
@<TRIPOS>BOND
     1     1     7    1
     2     1    15    1
     3     2    11    1
     4     2    36    1
     5     3    18    1
     6     3    22    1
     7     4     8    1
     8     4    20    1
     9     4    21    1
    10     5     6    1
    11     5     7    1
    12     5     9    1
    13     5    13    1
    14     6     8    1
    15     6    14    1
    16     6    23    1
    17     7    11    1
    18     7    24    1
    19     8    10    1
    20     8    25    1
    21     9    12   ar
    22     9    15   ar
    23    10    12    1
    24    10    26    1
    25    10    27    1
    26    11    16    1
    27    11    28    1
    28    12    17   ar
    29    13    29    1
    30    13    30    1
    31    13    31    1
    32    14    16    2
    33    14    32    1
    34    15    18   ar
    35    16    33    1
    36    17    19   ar
    37    17    34    1
    38    18    19   ar
    39    19    35    1
    40    20    37    1
    41    20    38    1
    42    20    39    1
    43    21    40    1
    44    21    41    1
    45    21    42    1
    46    22    43    1
    47    22    44    1
    48    22    45    1
@<TRIPOS>MOLECULE
5324288
 43 47 0 0 0
SMALL
GASTEIGER

@<TRIPOS>ATOM
      1 O          -1.7043    0.7540   -1.2399 O.3     1  UNL1       -0.4811
      2 O          -1.0626    3.8555   -0.1296 O.3     1  UNL1       -0.3841
      3 O          -3.6668   -1.3210   -0.6297 O.3     1  UNL1       -0.4914
      4 N           3.2708   -0.5474   -0.4967 N.3     1  UNL1       -0.3015
      5 C           0.6320    0.6590   -0.6322 C.3     1  UNL1        0.0480
      6 C           1.6928    1.1004    0.3821 C.3     1  UNL1        0.0064
      7 C           2.5328   -0.1698    0.7338 C.3     1  UNL1        0.0213
      8 C          -0.5487    1.6131   -0.9011 C.3     1  UNL1        0.1399
      9 C           1.3499    0.1981   -1.9190 C.3     1  UNL1       -0.0263
     10 C          -0.1665   -0.4721   -0.0826 C.ar    1  UNL1        0.0116
     11 C           1.6645   -1.3115    1.3690 C.3     1  UNL1       -0.0110
     12 C           2.4133   -0.8797   -1.6397 C.3     1  UNL1       -0.0001
     13 C           0.2808   -1.4415    0.7931 C.ar    1  UNL1       -0.0383
     14 C          -0.9618    2.4978    0.3071 C.3     1  UNL1        0.1110
     15 C           1.1105    1.8197    1.5652 C.2     1  UNL1       -0.0799
     16 C          -1.4707   -0.3961   -0.5245 C.ar    1  UNL1        0.1666
     17 C          -0.0672    2.4556    1.5138 C.2     1  UNL1       -0.0559
     18 C           4.2845   -1.5732   -0.2757 C.3     1  UNL1       -0.0124
     19 C          -0.6333   -2.4310    1.1560 C.ar    1  UNL1       -0.0546
     20 C          -2.3850   -1.3695   -0.1928 C.ar    1  UNL1        0.1618
     21 C          -1.9507   -2.4029    0.6497 C.ar    1  UNL1       -0.0160
     22 C          -4.6143   -0.6373    0.1939 C.3     1  UNL1        0.0790
     23 H           2.3654    1.8334   -0.0899 H       1  UNL1        0.0368
     24 H           3.2853    0.1212    1.4798 H       1  UNL1        0.0472
     25 H          -0.3548    2.2396   -1.7805 H       1  UNL1        0.0772
     26 H           1.8386    1.0659   -2.3822 H       1  UNL1        0.0287
     27 H           0.6398   -0.1899   -2.6606 H       1  UNL1        0.0287
     28 H           1.5473   -1.0804    2.4365 H       1  UNL1        0.0329
     29 H           2.1776   -2.2769    1.3181 H       1  UNL1        0.0329
     30 H           1.9250   -1.8509   -1.4911 H       1  UNL1        0.0427
     31 H           3.0294   -0.9818   -2.5420 H       1  UNL1        0.0427
     32 H          -1.9697    2.2145    0.6356 H       1  UNL1        0.0675
     33 H           1.6992    1.8720    2.4766 H       1  UNL1        0.0573
     34 H          -0.4087    2.9837    2.4007 H       1  UNL1        0.0596
     35 H           4.9299   -1.6622   -1.1568 H       1  UNL1        0.0391
     36 H           3.8548   -2.5600   -0.0765 H       1  UNL1        0.0391
     37 H           4.9381   -1.3032    0.5610 H       1  UNL1        0.0391
     38 H          -0.3438   -3.2208    1.8441 H       1  UNL1        0.0622
     39 H          -2.6451   -3.1855    0.9478 H       1  UNL1        0.0655
     40 H          -1.3898    4.3867    0.6167 H       1  UNL1        0.2104
     41 H          -4.6932   -1.1248    1.1707 H       1  UNL1        0.0660
     42 H          -5.5891   -0.6789   -0.2994 H       1  UNL1        0.0660
     43 H          -4.3274    0.4118    0.3180 H       1  UNL1        0.0660
@<TRIPOS>BOND
     1     1     8    1
     2     1    16    1
     3     2    14    1
     4     2    40    1
     5     3    20    1
     6     3    22    1
     7     4     7    1
     8     4    12    1
     9     4    18    1
    10     5     6    1
    11     5     8    1
    12     5     9    1
    13     5    10    1
    14     6     7    1
    15     6    15    1
    16     6    23    1
    17     7    11    1
    18     7    24    1
    19     8    14    1
    20     8    25    1
    21     9    12    1
    22     9    26    1
    23     9    27    1
    24    10    13   ar
    25    10    16   ar
    26    11    13    1
    27    11    28    1
    28    11    29    1
    29    12    30    1
    30    12    31    1
    31    13    19   ar
    32    14    17    1
    33    14    32    1
    34    15    17    2
    35    15    33    1
    36    16    20   ar
    37    17    34    1
    38    18    35    1
    39    18    36    1
    40    18    37    1
    41    19    21   ar
    42    19    38    1
    43    20    21   ar
    44    21    39    1
    45    22    41    1
    46    22    42    1
    47    22    43    1
@<TRIPOS>MOLECULE
7240
 14 14 0 0 0
SMALL
GASTEIGER

@<TRIPOS>ATOM
      1 CL          2.2401   -1.2856    0.0001 Cl      1  UNL1       -0.0816
      2 N           1.5630    1.6819   -0.0003 N.pl3   1  UNL1       -0.3568
      3 C           0.4677    0.7896    0.0001 C.ar    1  UNL1        0.0431
      4 C           0.6580   -0.5922    0.0002 C.ar    1  UNL1        0.0616
      5 C          -0.8242    1.3157    0.0001 C.ar    1  UNL1       -0.0396
      6 C          -0.4435   -1.4479   -0.0001 C.ar    1  UNL1       -0.0416
      7 C          -1.9258    0.4601    0.0000 C.ar    1  UNL1       -0.0599
      8 C          -1.7354   -0.9217   -0.0001 C.ar    1  UNL1       -0.0603
      9 H          -0.9875    2.3905    0.0001 H       1  UNL1        0.0636
     10 H          -0.3127   -2.5271   -0.0003 H       1  UNL1        0.0633
     11 H          -2.9317    0.8696    0.0000 H       1  UNL1        0.0618
     12 H          -2.5932   -1.5879   -0.0003 H       1  UNL1        0.0618
     13 H           1.4056    2.6808    0.0004 H       1  UNL1        0.1424
     14 H           2.5066    1.3178    0.0003 H       1  UNL1        0.1424
@<TRIPOS>BOND
     1     1     4    1
     2     2     3    1
     3     2    13    1
     4     2    14    1
     5     3     4   ar
     6     3     5   ar
     7     4     6   ar
     8     5     7   ar
     9     5     9    1
    10     6     8   ar
    11     6    10    1
    12     7     8   ar
    13     7    11    1
    14     8    12    1
@<TRIPOS>MOLECULE
522741
 56 61 0 0 0
SMALL
GASTEIGER

@<TRIPOS>ATOM
      1 O           0.4736    1.2992   -1.3160 O.3     1  UNL1       -0.4803
      2 O          -2.1557    0.2791   -0.1875 O.3     1  UNL1       -0.4541
      3 O           1.6871    3.9192   -0.8707 O.3     1  UNL1       -0.4914
      4 O          -2.9772    0.8884    1.8746 O.2     1  UNL1       -0.2449
      5 N           3.5443   -2.7941   -0.3866 N.3     1  UNL1       -0.3018
      6 N          -5.6797   -0.9893   -1.5743 N.ar    1  UNL1       -0.2624
      7 C           1.4423   -0.7982   -0.6002 C.3     1  UNL1        0.0453
      8 C           1.4454   -1.8935    0.4700 C.3     1  UNL1       -0.0117
      9 C           0.1171   -0.0713   -0.8968 C.3     1  UNL1        0.1470
     10 C           2.9361   -2.1852    0.8218 C.3     1  UNL1        0.0178
     11 C           2.1230   -1.3599   -1.8684 C.3     1  UNL1       -0.0266
     12 C           2.1994    0.3899   -0.1246 C.ar    1  UNL1        0.0113
     13 C           0.5596   -1.5554    1.6734 C.3     1  UNL1       -0.0444
     14 C          -0.8385    0.0441    0.3112 C.3     1  UNL1        0.1408
     15 C           3.6840   -0.9213    1.3745 C.3     1  UNL1       -0.0113
     16 C          -0.8473   -1.1999    1.1968 C.3     1  UNL1       -0.0118
     17 C           3.5214   -1.9351   -1.5758 C.3     1  UNL1       -0.0002
     18 C           3.2808    0.3803    0.7342 C.ar    1  UNL1       -0.0383
     19 C           1.6400    1.5469   -0.6288 C.ar    1  UNL1        0.1666
     20 C           4.8739   -3.3472   -0.1534 C.3     1  UNL1       -0.0125
     21 C           3.8669    1.6138    1.0179 C.ar    1  UNL1       -0.0546
     22 C           2.2116    2.7723   -0.3747 C.ar    1  UNL1        0.1618
     23 C           3.3450    2.7973    0.4513 C.ar    1  UNL1       -0.0160
     24 C          -3.1257    0.4316    0.7519 C.2     1  UNL1        0.3410
     25 C          -4.4333   -0.0417    0.2316 C.ar    1  UNL1        0.0770
     26 C           0.7134    4.5942   -0.0708 C.3     1  UNL1        0.0790
     27 C          -5.5513    0.0240    1.0278 C.ar    1  UNL1       -0.0449
     28 C          -4.5213   -0.5421   -1.0399 C.ar    1  UNL1        0.0415
     29 C          -6.7619   -0.4267    0.5132 C.ar    1  UNL1       -0.0428
     30 C          -6.7729   -0.9197   -0.7817 C.ar    1  UNL1        0.0276
     31 H           1.0108   -2.8069    0.0338 H       1  UNL1        0.0326
     32 H          -0.4067   -0.5361   -1.7414 H       1  UNL1        0.0780
     33 H           2.9497   -2.9498    1.6102 H       1  UNL1        0.0469
     34 H           2.2123   -0.5956   -2.6512 H       1  UNL1        0.0287
     35 H           1.4927   -2.1573   -2.2847 H       1  UNL1        0.0287
     36 H           0.9688   -0.7269    2.2619 H       1  UNL1        0.0270
     37 H           0.5093   -2.4222    2.3430 H       1  UNL1        0.0270
     38 H          -0.5588    0.9166    0.9171 H       1  UNL1        0.0772
     39 H           4.7699   -1.0419    1.3100 H       1  UNL1        0.0329
     40 H           3.4469   -0.8406    2.4438 H       1  UNL1        0.0329
     41 H          -1.2887   -2.0442    0.6512 H       1  UNL1        0.0302
     42 H          -1.4769   -1.0596    2.0816 H       1  UNL1        0.0302
     43 H           3.8327   -2.5162   -2.4529 H       1  UNL1        0.0427
     44 H           4.2450   -1.1162   -1.4790 H       1  UNL1        0.0427
     45 H           4.8743   -4.0098    0.7189 H       1  UNL1        0.0391
     46 H           5.6357   -2.5757   -0.0039 H       1  UNL1        0.0391
     47 H           5.1831   -3.9599   -1.0078 H       1  UNL1        0.0391
     48 H           4.7192    1.6757    1.6893 H       1  UNL1        0.0622
     49 H           3.8200    3.7468    0.6882 H       1  UNL1        0.0655
     50 H           0.3838    5.4849   -0.6124 H       1  UNL1        0.0660
     51 H           1.1516    4.9043    0.8831 H       1  UNL1        0.0660
     52 H          -0.1529    3.9482    0.1043 H       1  UNL1        0.0660
     53 H          -5.5168    0.4147    2.0399 H       1  UNL1        0.0627
     54 H          -3.6793   -0.6221   -1.7183 H       1  UNL1        0.0838
     55 H          -7.6683   -0.3932    1.1068 H       1  UNL1        0.0633
     56 H          -7.6917   -1.2835   -1.2297 H       1  UNL1        0.0829
@<TRIPOS>BOND
     1     1     9    1
     2     1    19    1
     3     2    14    1
     4     2    24    1
     5     3    22    1
     6     3    26    1
     7     4    24    2
     8     5    10    1
     9     5    17    1
    10     5    20    1
    11     6    28   ar
    12     6    30   ar
    13     7     8    1
    14     7     9    1
    15     7    11    1
    16     7    12    1
    17     8    10    1
    18     8    13    1
    19     8    31    1
    20     9    14    1
    21     9    32    1
    22    10    15    1
    23    10    33    1
    24    11    17    1
    25    11    34    1
    26    11    35    1
    27    12    18   ar
    28    12    19   ar
    29    13    16    1
    30    13    36    1
    31    13    37    1
    32    14    16    1
    33    14    38    1
    34    15    18    1
    35    15    39    1
    36    15    40    1
    37    16    41    1
    38    16    42    1
    39    17    43    1
    40    17    44    1
    41    18    21   ar
    42    19    22   ar
    43    20    45    1
    44    20    46    1
    45    20    47    1
    46    21    23   ar
    47    21    48    1
    48    22    23   ar
    49    23    49    1
    50    24    25    1
    51    25    27   ar
    52    25    28   ar
    53    26    50    1
    54    26    51    1
    55    26    52    1
    56    27    29   ar
    57    27    53    1
    58    28    54    1
    59    29    30   ar
    60    29    55    1
    61    30    56    1
@<TRIPOS>MOLECULE
5486612
 42 46 0 0 0
SMALL
GASTEIGER

@<TRIPOS>ATOM
      1 CL          1.0372    4.2097    0.1722 Cl      1  UNL1       -0.1135
      2 O           1.7144    0.7460    1.2207 O.3     1  UNL1       -0.4822
      3 O           3.6639   -1.3462    0.6381 O.3     1  UNL1       -0.4914
      4 N          -3.2771   -0.5284    0.4965 N.3     1  UNL1       -0.3015
      5 C          -0.6272    0.6539    0.6190 C.3     1  UNL1        0.0469
      6 C          -1.6792    1.0856   -0.4088 C.3     1  UNL1        0.0063
      7 C          -2.5311   -0.1829   -0.7382 C.3     1  UNL1        0.0213
      8 C           0.5595    1.6045    0.8793 C.3     1  UNL1        0.1302
      9 C          -1.3529    0.2190    1.9104 C.3     1  UNL1       -0.0263
     10 C           0.1654   -0.4911    0.0888 C.ar    1  UNL1        0.0115
     11 C          -1.6721   -1.3463   -1.3464 C.3     1  UNL1       -0.0110
     12 C          -2.4259   -0.8527    1.6462 C.3     1  UNL1       -0.0001
     13 C          -0.2882   -1.4730   -0.7700 C.ar    1  UNL1       -0.0383
     14 C           0.9712    2.4864   -0.3327 C.3     1  UNL1        0.0897
     15 C          -1.0782    1.7661   -1.6055 C.2     1  UNL1       -0.0809
     16 C           1.4716   -0.4134    0.5247 C.ar    1  UNL1        0.1665
     17 C           0.1017    2.3988   -1.5556 C.2     1  UNL1       -0.0666
     18 C          -4.3042   -1.5440    0.2907 C.3     1  UNL1       -0.0124
     19 C           0.6200   -2.4728   -1.1186 C.ar    1  UNL1       -0.0546
     20 C           2.3804   -1.3966    0.2061 C.ar    1  UNL1        0.1618
     21 C           1.9391   -2.4422   -0.6171 C.ar    1  UNL1       -0.0160
     22 C           4.6115   -0.6804   -0.1998 C.3     1  UNL1        0.0790
     23 H          -2.3452    1.8371    0.0424 H       1  UNL1        0.0368
     24 H          -3.2776    0.1008   -1.4931 H       1  UNL1        0.0472
     25 H           0.3643    2.2190    1.7666 H       1  UNL1        0.0760
     26 H          -1.8347    1.0984    2.3588 H       1  UNL1        0.0287
     27 H          -0.6479   -0.1640    2.6595 H       1  UNL1        0.0287
     28 H          -1.5552   -1.1420   -2.4194 H       1  UNL1        0.0329
     29 H          -2.1921   -2.3065   -1.2714 H       1  UNL1        0.0329
     30 H          -1.9473   -1.8310    1.5136 H       1  UNL1        0.0427
     31 H          -3.0447   -0.9345    2.5487 H       1  UNL1        0.0427
     32 H           1.9961    2.2432   -0.6357 H       1  UNL1        0.0546
     33 H          -1.6492    1.7851   -2.5292 H       1  UNL1        0.0573
     34 H           0.4625    2.8871   -2.4580 H       1  UNL1        0.0585
     35 H          -3.8877   -2.5397    0.1088 H       1  UNL1        0.0391
     36 H          -4.9528   -1.2793   -0.5514 H       1  UNL1        0.0391
     37 H          -4.9522   -1.6095    1.1722 H       1  UNL1        0.0391
     38 H           0.3250   -3.2725   -1.7926 H       1  UNL1        0.0622
     39 H           2.6290   -3.2328   -0.9039 H       1  UNL1        0.0655
     40 H           5.5877   -0.7175    0.2912 H       1  UNL1        0.0660
     41 H           4.3283    0.3675   -0.3409 H       1  UNL1        0.0660
     42 H           4.6855   -1.1848   -1.1684 H       1  UNL1        0.0660
@<TRIPOS>BOND
     1     1    14    1
     2     2     8    1
     3     2    16    1
     4     3    20    1
     5     3    22    1
     6     4     7    1
     7     4    12    1
     8     4    18    1
     9     5     6    1
    10     5     8    1
    11     5     9    1
    12     5    10    1
    13     6     7    1
    14     6    15    1
    15     6    23    1
    16     7    11    1
    17     7    24    1
    18     8    14    1
    19     8    25    1
    20     9    12    1
    21     9    26    1
    22     9    27    1
    23    10    13   ar
    24    10    16   ar
    25    11    13    1
    26    11    28    1
    27    11    29    1
    28    12    30    1
    29    12    31    1
    30    13    19   ar
    31    14    17    1
    32    14    32    1
    33    15    17    2
    34    15    33    1
    35    16    20   ar
    36    17    34    1
    37    18    35    1
    38    18    36    1
    39    18    37    1
    40    19    21   ar
    41    19    38    1
    42    20    21   ar
    43    21    39    1
    44    22    40    1
    45    22    41    1
    46    22    42    1
@<TRIPOS>MOLECULE
5493384
 48 52 0 0 0
SMALL
GASTEIGER

@<TRIPOS>ATOM
      1 O          -1.6961    0.4905   -1.1279 O.3     1  UNL1       -0.4814
      2 O          -2.1195    3.0693   -0.2823 O.3     1  UNL1       -0.3761
      3 O          -3.4148   -1.7537   -0.4918 O.3     1  UNL1       -0.4914
      4 N           3.5062   -0.1103   -0.3882 N.3     1  UNL1       -0.3018
      5 C           0.7019    0.5842   -0.6693 C.3     1  UNL1        0.0443
      6 C           1.5802    1.1390    0.4598 C.3     1  UNL1       -0.0117
      7 C          -0.5482    1.4023   -1.0511 C.3     1  UNL1        0.1363
      8 C           2.6332    0.0333    0.8007 C.3     1  UNL1        0.0178
      9 C           1.5708    0.2646   -1.9031 C.3     1  UNL1       -0.0266
     10 C           0.0347   -0.6379   -0.1504 C.ar    1  UNL1        0.0113
     11 C           0.7835    1.6230    1.6936 C.3     1  UNL1       -0.0454
     12 C          -0.8086    2.5578   -0.0720 C.3     1  UNL1        0.0959
     13 C           1.9664   -1.3092    1.2748 C.3     1  UNL1       -0.0113
     14 C          -0.6245    2.1487    1.3864 C.3     1  UNL1       -0.0228
     15 C           2.7986   -0.5973   -1.5754 C.3     1  UNL1       -0.0002
     16 C           0.5981   -1.5743    0.6990 C.ar    1  UNL1       -0.0383
     17 C          -1.2954   -0.6581   -0.5008 C.ar    1  UNL1        0.1665
     18 C           4.7141   -0.8872   -0.1298 C.3     1  UNL1       -0.0125
     19 C          -0.2015   -2.6548    1.0750 C.ar    1  UNL1       -0.0546
     20 C          -2.1045   -1.7141   -0.1409 C.ar    1  UNL1        0.1618
     21 C          -1.5387   -2.7325    0.6376 C.ar    1  UNL1       -0.0160
     22 C          -2.3628    4.2071    0.5284 C.3     1  UNL1        0.0370
     23 C          -4.1730   -2.8907   -0.0721 C.3     1  UNL1        0.0790
     24 H           2.1129    2.0230    0.0766 H       1  UNL1        0.0326
     25 H          -0.4564    1.8316   -2.0571 H       1  UNL1        0.0768
     26 H           3.2576    0.4092    1.6223 H       1  UNL1        0.0469
     27 H           1.9192    1.2105   -2.3400 H       1  UNL1        0.0287
     28 H           0.9824   -0.2402   -2.6804 H       1  UNL1        0.0287
     29 H           1.3651    2.4230    2.1709 H       1  UNL1        0.0270
     30 H           0.7002    0.8414    2.4571 H       1  UNL1        0.0270
     31 H          -0.0846    3.3515   -0.3047 H       1  UNL1        0.0633
     32 H           1.8517   -1.2468    2.3653 H       1  UNL1        0.0329
     33 H           2.6128   -2.1722    1.0871 H       1  UNL1        0.0329
     34 H          -1.3708    1.3887    1.6513 H       1  UNL1        0.0291
     35 H          -0.8145    2.9772    2.0769 H       1  UNL1        0.0291
     36 H           2.4985   -1.6457   -1.4563 H       1  UNL1        0.0427
     37 H           3.4693   -0.5670   -2.4432 H       1  UNL1        0.0427
     38 H           5.4041   -0.8048   -0.9774 H       1  UNL1        0.0391
     39 H           4.5130   -1.9504    0.0337 H       1  UNL1        0.0391
     40 H           5.2490   -0.4973    0.7431 H       1  UNL1        0.0391
     41 H           0.1901   -3.4241    1.7353 H       1  UNL1        0.0622
     42 H          -2.0981   -3.5991    0.9764 H       1  UNL1        0.0655
     43 H          -1.5073    4.8898    0.5562 H       1  UNL1        0.0524
     44 H          -2.6624    3.9107    1.5375 H       1  UNL1        0.0524
     45 H          -3.2079    4.7490    0.0927 H       1  UNL1        0.0524
     46 H          -4.2426   -2.9427    1.0195 H       1  UNL1        0.0660
     47 H          -3.7788   -3.8162   -0.5051 H       1  UNL1        0.0660
     48 H          -5.1902   -2.7616   -0.4555 H       1  UNL1        0.0660
@<TRIPOS>BOND
     1     1     7    1
     2     1    17    1
     3     2    12    1
     4     2    22    1
     5     3    20    1
     6     3    23    1
     7     4     8    1
     8     4    15    1
     9     4    18    1
    10     5     6    1
    11     5     7    1
    12     5     9    1
    13     5    10    1
    14     6     8    1
    15     6    11    1
    16     6    24    1
    17     7    12    1
    18     7    25    1
    19     8    13    1
    20     8    26    1
    21     9    15    1
    22     9    27    1
    23     9    28    1
    24    10    16   ar
    25    10    17   ar
    26    11    14    1
    27    11    29    1
    28    11    30    1
    29    12    14    1
    30    12    31    1
    31    13    16    1
    32    13    32    1
    33    13    33    1
    34    14    34    1
    35    14    35    1
    36    15    36    1
    37    15    37    1
    38    16    19   ar
    39    17    20   ar
    40    18    38    1
    41    18    39    1
    42    18    40    1
    43    19    21   ar
    44    19    41    1
    45    20    21   ar
    46    21    42    1
    47    22    43    1
    48    22    44    1
    49    22    45    1
    50    23    46    1
    51    23    47    1
    52    23    48    1
@<TRIPOS>MOLECULE
5745686
 40 44 0 0 0
SMALL
GASTEIGER

@<TRIPOS>ATOM
      1 CL          0.3596    3.8861   -1.4014 Cl      1  UNL1       -0.0831
      2 O          -2.0409   -0.7918    1.1504 O.3     1  UNL1       -0.4811
      3 O          -2.8909   -2.5059   -0.6268 O.3     1  UNL1       -0.3841
      4 O          -3.5723    1.6655    0.9378 O.3     1  UNL1       -0.5033
      5 N           3.1523   -0.4032    0.5193 N.3     1  UNL1       -0.3015
      6 C           0.3173   -1.0233    0.5874 C.3     1  UNL1        0.0480
      7 C           1.2283   -1.4412   -0.5770 C.3     1  UNL1        0.0064
      8 C           2.3264   -0.3366   -0.7106 C.3     1  UNL1        0.0213
      9 C          -1.0220   -1.7773    0.7593 C.3     1  UNL1        0.1399
     10 C           1.1431   -0.9687    1.8878 C.3     1  UNL1       -0.0263
     11 C          -0.2497    0.3236    0.2815 C.ar    1  UNL1        0.0129
     12 C           1.7281    1.0771   -1.0277 C.3     1  UNL1       -0.0097
     13 C           2.4115   -0.1105    1.7504 C.3     1  UNL1       -0.0001
     14 C           0.3845    1.3440   -0.4041 C.ar    1  UNL1       -0.0200
     15 C          -1.4737   -2.5762   -0.4912 C.3     1  UNL1        0.1110
     16 C           0.4385   -1.6981   -1.8350 C.2     1  UNL1       -0.0799
     17 C          -1.5651    0.4023    0.6802 C.ar    1  UNL1        0.1664
     18 C          -0.8047   -2.1994   -1.7863 C.2     1  UNL1       -0.0559
     19 C           4.3804    0.3807    0.4373 C.3     1  UNL1       -0.0124
     20 C          -0.3248    2.5342   -0.5735 C.ar    1  UNL1        0.0482
     21 C          -2.2825    1.5689    0.5316 C.ar    1  UNL1        0.1602
     22 C          -1.6433    2.6497   -0.0892 C.ar    1  UNL1        0.0021
     23 H           1.7263   -2.3927   -0.3363 H       1  UNL1        0.0368
     24 H           2.9788   -0.6136   -1.5505 H       1  UNL1        0.0472
     25 H          -0.9614   -2.4840    1.5971 H       1  UNL1        0.0772
     26 H           1.4392   -1.9909    2.1595 H       1  UNL1        0.0287
     27 H           0.5451   -0.5846    2.7244 H       1  UNL1        0.0287
     28 H           1.5981    1.1332   -2.1171 H       1  UNL1        0.0329
     29 H           2.4320    1.8698   -0.7568 H       1  UNL1        0.0329
     30 H           2.1487    0.9532    1.8066 H       1  UNL1        0.0427
     31 H           3.0484   -0.3151    2.6202 H       1  UNL1        0.0427
     32 H          -1.2304   -3.6342   -0.3279 H       1  UNL1        0.0675
     33 H           0.9043   -1.5119   -2.7977 H       1  UNL1        0.0573
     34 H          -1.3239   -2.4138   -2.7159 H       1  UNL1        0.0596
     35 H           4.2004    1.4601    0.4569 H       1  UNL1        0.0391
     36 H           4.9389    0.1380   -0.4733 H       1  UNL1        0.0391
     37 H           5.0395    0.1376    1.2785 H       1  UNL1        0.0391
     38 H          -2.1938    3.5788   -0.2267 H       1  UNL1        0.0670
     39 H          -3.2791   -2.7796    0.2218 H       1  UNL1        0.2104
     40 H          -3.8340    0.8146    1.3306 H       1  UNL1        0.2923
@<TRIPOS>BOND
     1     1    20    1
     2     2     9    1
     3     2    17    1
     4     3    15    1
     5     3    39    1
     6     4    21    1
     7     4    40    1
     8     5     8    1
     9     5    13    1
    10     5    19    1
    11     6     7    1
    12     6     9    1
    13     6    10    1
    14     6    11    1
    15     7     8    1
    16     7    16    1
    17     7    23    1
    18     8    12    1
    19     8    24    1
    20     9    15    1
    21     9    25    1
    22    10    13    1
    23    10    26    1
    24    10    27    1
    25    11    14   ar
    26    11    17   ar
    27    12    14    1
    28    12    28    1
    29    12    29    1
    30    13    30    1
    31    13    31    1
    32    14    20   ar
    33    15    18    1
    34    15    32    1
    35    16    18    2
    36    16    33    1
    37    17    21   ar
    38    18    34    1
    39    19    35    1
    40    19    36    1
    41    19    37    1
    42    20    22   ar
    43    21    22   ar
    44    22    38    1
@<TRIPOS>MOLECULE
10474390
 55 59 0 0 0
SMALL
GASTEIGER

@<TRIPOS>ATOM
      1 SI         -4.1981   -1.0532   -0.1866 Si      1  UNL1        0.0000
      2 O          -0.7721    0.8855    1.4783 O.3     1  UNL1        0.0000
      3 O          -2.7889   -0.4388    0.4792 O.3     1  UNL1        0.0000
      4 O          -0.8839    3.6445    0.5803 O.3     1  UNL1        0.0000
      5 N           3.5604   -1.8177    0.2782 N.3     1  UNL1        0.0000
      6 C           0.9213   -0.7339    0.8141 C.3     1  UNL1        0.0000
      7 C           1.1654   -1.8472   -0.2162 C.3     1  UNL1        0.0000
      8 C          -0.5166   -0.5574    1.3554 C.3     1  UNL1        0.0000
      9 C           2.5867   -1.6013   -0.8191 C.3     1  UNL1        0.0000
     10 C           1.9734   -0.8366    1.9360 C.3     1  UNL1        0.0000
     11 C           1.0365    0.5831    0.1202 C.ar    1  UNL1        0.0000
     12 C           2.7060   -0.2163   -1.5434 C.3     1  UNL1        0.0000
     13 C           3.4130   -0.8825    1.3980 C.3     1  UNL1        0.0000
     14 C          -1.6131   -1.2443    0.4999 C.3     1  UNL1        0.0000
     15 C           1.8870    0.8863   -0.9277 C.ar    1  UNL1        0.0000
     16 C           0.0544   -1.9161   -1.2326 C.2     1  UNL1        0.0000
     17 C           0.0892    1.4662    0.5871 C.ar    1  UNL1        0.0000
     18 C          -1.2112   -1.6198   -0.9017 C.2     1  UNL1        0.0000
     19 C           1.8425    2.1889   -1.4274 C.ar    1  UNL1        0.0000
     20 C           4.9444   -1.8877   -0.1789 C.3     1  UNL1        0.0000
     21 C           0.0318    2.7593    0.1158 C.ar    1  UNL1        0.0000
     22 C           0.9332    3.1235   -0.8927 C.ar    1  UNL1        0.0000
     23 C          -5.5682    0.2350   -0.0688 C.3     1  UNL1        0.0000
     24 C          -4.7699   -2.5946    0.7277 C.3     1  UNL1        0.0000
     25 C          -3.9628   -1.4865   -2.0018 C.3     1  UNL1        0.0000
     26 C          -0.8605    4.9619    0.0266 C.3     1  UNL1        0.0000
     27 H           1.1712   -2.8255    0.2881 H       1  UNL1        0.0000
     28 H          -0.5958   -0.9550    2.3756 H       1  UNL1        0.0000
     29 H           2.7709   -2.3820   -1.5703 H       1  UNL1        0.0000
     30 H           1.7849   -1.7528    2.5119 H       1  UNL1        0.0000
     31 H           1.8862   -0.0009    2.6424 H       1  UNL1        0.0000
     32 H           2.3399   -0.3526   -2.5701 H       1  UNL1        0.0000
     33 H           3.7487    0.1046   -1.6298 H       1  UNL1        0.0000
     34 H           3.7354    0.1263    1.1117 H       1  UNL1        0.0000
     35 H           4.0676   -1.1908    2.2229 H       1  UNL1        0.0000
     36 H          -1.8475   -2.1907    1.0105 H       1  UNL1        0.0000
     37 H           0.2853   -2.2628   -2.2358 H       1  UNL1        0.0000
     38 H          -1.8531   -1.7967   -1.7285 H       1  UNL1        0.0000
     39 H           2.4897    2.4837   -2.2492 H       1  UNL1        0.0000
     40 H           5.3321   -0.9210   -0.5155 H       1  UNL1        0.0000
     41 H           5.0496   -2.6081   -0.9975 H       1  UNL1        0.0000
     42 H           5.5918   -2.2429    0.6310 H       1  UNL1        0.0000
     43 H           0.9592    4.1144   -1.3357 H       1  UNL1        0.0000
     44 H          -6.4982   -0.1515   -0.4958 H       1  UNL1        0.0000
     45 H          -5.2881    1.1416   -0.6131 H       1  UNL1        0.0000
     46 H          -5.7524    0.5026    0.9758 H       1  UNL1        0.0000
     47 H          -5.7236   -2.9479    0.3247 H       1  UNL1        0.0000
     48 H          -4.9039   -2.3812    1.7922 H       1  UNL1        0.0000
     49 H          -4.0370   -3.4004    0.6272 H       1  UNL1        0.0000
     50 H          -3.3730   -0.7430   -2.5466 H       1  UNL1        0.0000
     51 H          -4.9554   -1.4669   -2.4694 H       1  UNL1        0.0000
     52 H          -3.6037   -2.5076   -2.1625 H       1  UNL1        0.0000
     53 H          -1.0975    4.9499   -1.0425 H       1  UNL1        0.0000
     54 H          -1.6476    5.5368    0.5251 H       1  UNL1        0.0000
     55 H           0.0890    5.4668    0.2339 H       1  UNL1        0.0000
@<TRIPOS>BOND
     1     1     3    1
     2     1    23    1
     3     1    24    1
     4     1    25    1
     5     2     8    1
     6     2    17    1
     7     3    14    1
     8     4    21    1
     9     4    26    1
    10     5     9    1
    11     5    13    1
    12     5    20    1
    13     6     7    1
    14     6     8    1
    15     6    10    1
    16     6    11    1
    17     7     9    1
    18     7    16    1
    19     7    27    1
    20     8    14    1
    21     8    28    1
    22     9    12    1
    23     9    29    1
    24    10    13    1
    25    10    30    1
    26    10    31    1
    27    11    15   ar
    28    11    17   ar
    29    12    15    1
    30    12    32    1
    31    12    33    1
    32    13    34    1
    33    13    35    1
    34    14    18    1
    35    14    36    1
    36    15    19   ar
    37    16    18    2
    38    16    37    1
    39    17    21   ar
    40    18    38    1
    41    19    22   ar
    42    19    39    1
    43    20    40    1
    44    20    41    1
    45    20    42    1
    46    21    22   ar
    47    22    43    1
    48    23    44    1
    49    23    45    1
    50    23    46    1
    51    24    47    1
    52    24    48    1
    53    24    49    1
    54    25    50    1
    55    25    51    1
    56    25    52    1
    57    26    53    1
    58    26    54    1
    59    26    55    1
@<TRIPOS>MOLECULE
154732851
 62 65 0 0 0
SMALL
GASTEIGER

@<TRIPOS>ATOM
      1 O          -0.5386    0.1161    1.8358 O.3     1  UNL1       -0.4811
      2 O          -0.5644   -1.5649   -0.3588 O.3     1  UNL1       -0.3666
      3 O          -2.1964    2.3052    0.8663 O.3     1  UNL1       -0.4914
      4 O          -3.3541   -1.3685   -0.2135 O.3     1  UNL1       -0.3752
      5 O          -5.7370   -0.4757   -1.3838 O.3     1  UNL1       -0.3807
      6 N           4.5803   -0.5451   -1.3284 N.3     1  UNL1       -0.3045
      7 C           1.8395   -0.1359    1.3402 C.3     1  UNL1        0.0440
      8 C           2.8915   -0.8971    0.4799 C.3     1  UNL1        0.0060
      9 C           0.5375   -0.8766    1.7415 C.3     1  UNL1        0.1398
     10 C           3.2370   -0.1715   -0.8724 C.3     1  UNL1        0.0210
     11 C           1.1887    0.9800    0.6093 C.ar    1  UNL1        0.0113
     12 C           3.1498    1.3752   -0.8026 C.3     1  UNL1       -0.0111
     13 C           0.1188   -2.0267    0.8049 C.3     1  UNL1        0.1145
     14 C           1.7708    1.7632   -0.3649 C.ar    1  UNL1       -0.0383
     15 C           2.5182    0.4415    2.6042 C.3     1  UNL1       -0.0513
     16 C           2.5212   -2.3420    0.2249 C.2     1  UNL1       -0.0799
     17 C          -0.1297    1.1204    0.9919 C.ar    1  UNL1        0.1665
     18 C           1.2885   -2.8460    0.3641 C.2     1  UNL1       -0.0557
     19 C           1.0129    2.8112   -0.8828 C.ar    1  UNL1       -0.0546
     20 C          -0.9034    2.1445    0.4926 C.ar    1  UNL1        0.1618
     21 C          -0.3137    3.0054   -0.4443 C.ar    1  UNL1       -0.0160
     22 C           4.6780   -0.4104   -2.7797 C.3     1  UNL1       -0.0127
     23 C           5.5878    0.2794   -0.6658 C.3     1  UNL1       -0.0127
     24 C          -1.4031   -2.5737   -0.9015 C.3     1  UNL1        0.0719
     25 C          -2.6943   -2.6241   -0.1077 C.3     1  UNL1        0.0711
     26 C          -2.9133    3.3995    0.2902 C.3     1  UNL1        0.0790
     27 C          -4.5745   -1.3588    0.5138 C.3     1  UNL1        0.0711
     28 C          -5.4542   -0.2399   -0.0098 C.3     1  UNL1        0.0706
     29 C          -6.1440    0.7150   -2.0433 C.3     1  UNL1        0.0365
     30 H           3.8063   -0.9621    1.0851 H       1  UNL1        0.0368
     31 H           0.6658   -1.3031    2.7465 H       1  UNL1        0.0772
     32 H           2.4921   -0.5178   -1.6064 H       1  UNL1        0.0471
     33 H           3.3500    1.8344   -1.7768 H       1  UNL1        0.0329
     34 H           3.8235    1.8240   -0.0642 H       1  UNL1        0.0329
     35 H          -0.5382   -2.6657    1.4049 H       1  UNL1        0.0678
     36 H           2.9228   -0.3641    3.2274 H       1  UNL1        0.0240
     37 H           1.8206    1.0170    3.2247 H       1  UNL1        0.0240
     38 H           3.3453    1.1122    2.3435 H       1  UNL1        0.0240
     39 H           3.3151   -3.0042   -0.1122 H       1  UNL1        0.0573
     40 H           1.1256   -3.8956    0.1365 H       1  UNL1        0.0596
     41 H           1.4277    3.4704   -1.6403 H       1  UNL1        0.0622
     42 H          -0.8427    3.8384   -0.8975 H       1  UNL1        0.0655
     43 H           4.5436    0.6151   -3.1387 H       1  UNL1        0.0391
     44 H           3.9434   -1.0512   -3.2806 H       1  UNL1        0.0391
     45 H           5.6622   -0.7530   -3.1201 H       1  UNL1        0.0391
     46 H           5.6616    1.3026   -1.0527 H       1  UNL1        0.0391
     47 H           5.4748    0.3066    0.4232 H       1  UNL1        0.0391
     48 H           6.5718   -0.1747   -0.8390 H       1  UNL1        0.0391
     49 H          -0.9153   -3.5527   -0.9412 H       1  UNL1        0.0583
     50 H          -1.6231   -2.2719   -1.9313 H       1  UNL1        0.0583
     51 H          -3.3362   -3.4047   -0.5328 H       1  UNL1        0.0583
     52 H          -2.5321   -2.8521    0.9494 H       1  UNL1        0.0583
     53 H          -3.9239    3.3816    0.7109 H       1  UNL1        0.0660
     54 H          -2.4655    4.3605    0.5643 H       1  UNL1        0.0660
     55 H          -3.0136    3.2838   -0.7942 H       1  UNL1        0.0660
     56 H          -4.3580   -1.2142    1.5773 H       1  UNL1        0.0583
     57 H          -5.0986   -2.3130    0.3807 H       1  UNL1        0.0583
     58 H          -6.3949   -0.1928    0.5483 H       1  UNL1        0.0582
     59 H          -4.9218    0.7125    0.1027 H       1  UNL1        0.0582
     60 H          -6.3994    0.4660   -3.0767 H       1  UNL1        0.0524
     61 H          -7.0271    1.1407   -1.5568 H       1  UNL1        0.0524
     62 H          -5.3288    1.4453   -2.0535 H       1  UNL1        0.0524
@<TRIPOS>BOND
     1     1     9    1
     2     1    17    1
     3     2    13    1
     4     2    24    1
     5     3    20    1
     6     3    26    1
     7     4    25    1
     8     4    27    1
     9     5    28    1
    10     5    29    1
    11     6    10    1
    12     6    22    1
    13     6    23    1
    14     7     8    1
    15     7     9    1
    16     7    11    1
    17     7    15    1
    18     8    10    1
    19     8    16    1
    20     8    30    1
    21     9    13    1
    22     9    31    1
    23    10    12    1
    24    10    32    1
    25    11    14   ar
    26    11    17   ar
    27    12    14    1
    28    12    33    1
    29    12    34    1
    30    13    18    1
    31    13    35    1
    32    14    19   ar
    33    15    36    1
    34    15    37    1
    35    15    38    1
    36    16    18    2
    37    16    39    1
    38    17    20   ar
    39    18    40    1
    40    19    21   ar
    41    19    41    1
    42    20    21   ar
    43    21    42    1
    44    22    43    1
    45    22    44    1
    46    22    45    1
    47    23    46    1
    48    23    47    1
    49    23    48    1
    50    24    25    1
    51    24    49    1
    52    24    50    1
    53    25    51    1
    54    25    52    1
    55    26    53    1
    56    26    54    1
    57    26    55    1
    58    27    28    1
    59    27    56    1
    60    27    57    1
    61    28    58    1
    62    28    59    1
    63    29    60    1
    64    29    61    1
    65    29    62    1
@<TRIPOS>MOLECULE
154732852
 69 72 0 0 0
SMALL
GASTEIGER

@<TRIPOS>ATOM
      1 O           1.5054    2.4287   -1.1502 O.3     1  UNL1       -0.4811
      2 O           0.9579    1.6986    1.4594 O.3     1  UNL1       -0.3666
      3 O          -1.1619    2.3338   -2.3149 O.3     1  UNL1       -0.4914
      4 O          -1.4702    0.9958    2.6646 O.3     1  UNL1       -0.3752
      5 O          -4.4736   -0.5374    1.3126 O.3     1  UNL1       -0.3752
      6 O          -6.3939   -0.9292   -0.6882 O.3     1  UNL1       -0.3807
      7 N           3.4301   -2.9780    0.7776 N.3     1  UNL1       -0.3045
      8 C           2.9433    0.4793   -0.8381 C.3     1  UNL1        0.0440
      9 C           3.4952   -0.5490    0.1935 C.3     1  UNL1        0.0060
     10 C           2.6239    1.9164   -0.3506 C.3     1  UNL1        0.1398
     11 C           2.6174   -1.8490    0.3120 C.3     1  UNL1        0.0210
     12 C           1.5774    0.1479   -1.3152 C.ar    1  UNL1        0.0113
     13 C           1.9090   -2.2583   -1.0053 C.3     1  UNL1       -0.0111
     14 C           2.3063    2.0467    1.1519 C.3     1  UNL1        0.1145
     15 C           1.0550   -1.1188   -1.4701 C.ar    1  UNL1       -0.0383
     16 C           3.8836    0.5447   -2.0642 C.3     1  UNL1       -0.0513
     17 C           3.7397    0.0503    1.5613 C.2     1  UNL1       -0.0799
     18 C           0.8429    1.2926   -1.5483 C.ar    1  UNL1        0.1665
     19 C           3.2088    1.2018    1.9918 C.2     1  UNL1       -0.0557
     20 C          -0.2290   -1.2224   -2.0007 C.ar    1  UNL1       -0.0546
     21 C          -0.4304    1.2196   -2.0679 C.ar    1  UNL1        0.1618
     22 C          -0.9605   -0.0562   -2.3086 C.ar    1  UNL1       -0.0160
     23 C           2.5899   -3.9594    1.4595 C.3     1  UNL1       -0.0127
     24 C           4.1327   -3.5936   -0.3455 C.3     1  UNL1       -0.0127
     25 C           0.5219    2.3236    2.6573 C.3     1  UNL1        0.0719
     26 C          -0.9941    2.3360    2.6860 C.3     1  UNL1        0.0711
     27 C          -2.4727    2.1502   -2.8546 C.3     1  UNL1        0.0790
     28 C          -2.8233    0.9308    2.2362 C.3     1  UNL1        0.0711
     29 C          -3.1265   -0.4787    1.7659 C.3     1  UNL1        0.0711
     30 C          -4.8155   -1.8412    0.8639 C.3     1  UNL1        0.0711
     31 C          -6.2576   -1.8413    0.3949 C.3     1  UNL1        0.0706
     32 C          -7.7311   -0.8841   -1.1658 C.3     1  UNL1        0.0365
     33 H           4.4983   -0.8350   -0.1522 H       1  UNL1        0.0368
     34 H           3.4874    2.5636   -0.5597 H       1  UNL1        0.0772
     35 H           1.8381   -1.6269    1.0583 H       1  UNL1        0.0471
     36 H           1.2718   -3.1379   -0.8635 H       1  UNL1        0.0329
     37 H           2.5968   -2.4598   -1.8341 H       1  UNL1        0.0329
     38 H           2.4710    3.1052    1.3939 H       1  UNL1        0.0678
     39 H           4.8812    0.8886   -1.7678 H       1  UNL1        0.0240
     40 H           3.5153    1.2329   -2.8346 H       1  UNL1        0.0240
     41 H           3.9939   -0.4383   -2.5370 H       1  UNL1        0.0240
     42 H           4.3742   -0.5121    2.2420 H       1  UNL1        0.0573
     43 H           3.4229    1.5340    3.0037 H       1  UNL1        0.0596
     44 H          -0.6837   -2.1963   -2.1594 H       1  UNL1        0.0622
     45 H          -1.9559   -0.2170   -2.7116 H       1  UNL1        0.0655
     46 H           1.8319   -4.4164    0.8152 H       1  UNL1        0.0391
     47 H           2.0848   -3.5079    2.3210 H       1  UNL1        0.0391
     48 H           3.2123   -4.7675    1.8614 H       1  UNL1        0.0391
     49 H           4.6790   -2.8709   -0.9610 H       1  UNL1        0.0391
     50 H           3.5007   -4.2187   -0.9874 H       1  UNL1        0.0391
     51 H           4.9023   -4.2649    0.0567 H       1  UNL1        0.0391
     52 H           0.8759    3.3587    2.7256 H       1  UNL1        0.0583
     53 H           0.9051    1.7541    3.5111 H       1  UNL1        0.0583
     54 H          -1.3622    2.8318    3.5901 H       1  UNL1        0.0583
     55 H          -1.3518    2.8826    1.8051 H       1  UNL1        0.0583
     56 H          -2.9058    3.1451   -2.9994 H       1  UNL1        0.0660
     57 H          -2.4372    1.6667   -3.8366 H       1  UNL1        0.0660
     58 H          -3.1214    1.6143   -2.1533 H       1  UNL1        0.0660
     59 H          -3.0178    1.6235    1.4076 H       1  UNL1        0.0583
     60 H          -3.4833    1.2150    3.0637 H       1  UNL1        0.0583
     61 H          -2.4427   -0.7557    0.9541 H       1  UNL1        0.0583
     62 H          -2.9717   -1.1876    2.5883 H       1  UNL1        0.0583
     63 H          -4.6893   -2.5615    1.6797 H       1  UNL1        0.0583
     64 H          -4.1557   -2.1149    0.0322 H       1  UNL1        0.0583
     65 H          -6.5450   -2.8478    0.0716 H       1  UNL1        0.0582
     66 H          -6.9135   -1.5210    1.2128 H       1  UNL1        0.0582
     67 H          -7.7768   -0.1726   -1.9946 H       1  UNL1        0.0524
     68 H          -8.0412   -1.8674   -1.5325 H       1  UNL1        0.0524
     69 H          -8.4094   -0.5447   -0.3769 H       1  UNL1        0.0524
@<TRIPOS>BOND
     1     1    10    1
     2     1    18    1
     3     2    14    1
     4     2    25    1
     5     3    21    1
     6     3    27    1
     7     4    26    1
     8     4    28    1
     9     5    29    1
    10     5    30    1
    11     6    31    1
    12     6    32    1
    13     7    11    1
    14     7    23    1
    15     7    24    1
    16     8     9    1
    17     8    10    1
    18     8    12    1
    19     8    16    1
    20     9    11    1
    21     9    17    1
    22     9    33    1
    23    10    14    1
    24    10    34    1
    25    11    13    1
    26    11    35    1
    27    12    15   ar
    28    12    18   ar
    29    13    15    1
    30    13    36    1
    31    13    37    1
    32    14    19    1
    33    14    38    1
    34    15    20   ar
    35    16    39    1
    36    16    40    1
    37    16    41    1
    38    17    19    2
    39    17    42    1
    40    18    21   ar
    41    19    43    1
    42    20    22   ar
    43    20    44    1
    44    21    22   ar
    45    22    45    1
    46    23    46    1
    47    23    47    1
    48    23    48    1
    49    24    49    1
    50    24    50    1
    51    24    51    1
    52    25    26    1
    53    25    52    1
    54    25    53    1
    55    26    54    1
    56    26    55    1
    57    27    56    1
    58    27    57    1
    59    27    58    1
    60    28    29    1
    61    28    59    1
    62    28    60    1
    63    29    61    1
    64    29    62    1
    65    30    31    1
    66    30    63    1
    67    30    64    1
    68    31    65    1
    69    31    66    1
    70    32    67    1
    71    32    68    1
    72    32    69    1
@<TRIPOS>MOLECULE
154732853
 76 79 0 0 0
SMALL
GASTEIGER

@<TRIPOS>ATOM
      1 O           4.1561   -0.1207    1.5281 O.3     1  UNL1       -0.4811
      2 O           1.8845    1.4510    1.4181 O.3     1  UNL1       -0.3666
      3 O           5.7958    1.1455   -0.5184 O.3     1  UNL1       -0.4914
      4 O          -0.1465    2.9229    0.1730 O.3     1  UNL1       -0.3752
      5 O          -2.8368    2.7867   -0.5942 O.3     1  UNL1       -0.3752
      6 O          -5.8711    0.7885   -0.5994 O.3     1  UNL1       -0.3752
      7 O          -8.6632   -1.0985    0.7576 O.3     1  UNL1       -0.3807
      8 N          -0.9165   -2.5664   -0.6945 N.3     1  UNL1       -0.3045
      9 C           2.4051   -1.7609    1.0716 C.3     1  UNL1        0.0440
     10 C           0.8688   -1.9912    0.9570 C.3     1  UNL1        0.0060
     11 C           2.9198   -0.6937    2.0721 C.3     1  UNL1        0.1398
     12 C           0.3131   -1.7901   -0.5008 C.3     1  UNL1        0.0210
     13 C           2.9948   -1.1564   -0.1491 C.ar    1  UNL1        0.0113
     14 C           1.3180   -2.1662   -1.6203 C.3     1  UNL1       -0.0111
     15 C           1.9188    0.4280    2.4113 C.3     1  UNL1        0.1145
     16 C           2.5650   -1.3552   -1.4441 C.ar    1  UNL1       -0.0383
     17 C           3.1163   -3.1079    1.3389 C.3     1  UNL1       -0.0513
     18 C           0.0673   -1.1730    1.9459 C.2     1  UNL1       -0.0799
     19 C           4.0293   -0.3015    0.1719 C.ar    1  UNL1        0.1665
     20 C           0.5299   -0.0942    2.5904 C.2     1  UNL1       -0.0557
     21 C           3.2987   -0.7514   -2.4629 C.ar    1  UNL1       -0.0546
     22 C           4.7684    0.3124   -0.8147 C.ar    1  UNL1        0.1618
     23 C           4.4025    0.0679   -2.1463 C.ar    1  UNL1       -0.0160
     24 C          -1.7439   -1.9542   -1.7311 C.3     1  UNL1       -0.0127
     25 C          -0.5938   -3.9480   -1.0426 C.3     1  UNL1       -0.0127
     26 C           1.4301    2.6826    1.9586 C.3     1  UNL1        0.0719
     27 C           0.9383    3.5674    0.8296 C.3     1  UNL1        0.0711
     28 C           6.5001    1.7325   -1.6151 C.3     1  UNL1        0.0790
     29 C          -0.6488    3.7102   -0.8977 C.3     1  UNL1        0.0711
     30 C          -1.8030    2.9765   -1.5526 C.3     1  UNL1        0.0711
     31 C          -3.9478    2.1015   -1.1553 C.3     1  UNL1        0.0711
     32 C          -4.7732    1.4965   -0.0363 C.3     1  UNL1        0.0711
     33 C          -6.6848    0.2035    0.4074 C.3     1  UNL1        0.0711
     34 C          -7.8340   -0.5347   -0.2514 C.3     1  UNL1        0.0706
     35 C          -9.7572   -1.8093    0.1953 C.3     1  UNL1        0.0365
     36 H           0.6821   -3.0302    1.2619 H       1  UNL1        0.0368
     37 H           3.1869   -1.1892    3.0161 H       1  UNL1        0.0772
     38 H           0.0866   -0.7163   -0.5984 H       1  UNL1        0.0471
     39 H           0.9068   -1.9642   -2.6152 H       1  UNL1        0.0329
     40 H           1.6468   -3.2110   -1.5879 H       1  UNL1        0.0329
     41 H           2.2680    0.8709    3.3545 H       1  UNL1        0.0678
     42 H           2.7827   -3.5386    2.2899 H       1  UNL1        0.0240
     43 H           4.2063   -2.9993    1.3928 H       1  UNL1        0.0240
     44 H           2.9044   -3.8365    0.5475 H       1  UNL1        0.0240
     45 H          -0.9606   -1.4798    2.1239 H       1  UNL1        0.0573
     46 H          -0.1362    0.4333    3.2672 H       1  UNL1        0.0596
     47 H           3.0150   -0.8882   -3.5028 H       1  UNL1        0.0622
     48 H           4.9208    0.5082   -2.9928 H       1  UNL1        0.0655
     49 H          -1.2739   -1.9368   -2.7196 H       1  UNL1        0.0391
     50 H          -2.0127   -0.9272   -1.4580 H       1  UNL1        0.0391
     51 H          -2.6896   -2.5008   -1.8243 H       1  UNL1        0.0391
     52 H          -1.5067   -4.5493   -0.9453 H       1  UNL1        0.0391
     53 H           0.1249   -4.4091   -0.3567 H       1  UNL1        0.0391
     54 H          -0.2560   -4.0875   -2.0763 H       1  UNL1        0.0391
     55 H           2.2594    3.1670    2.4853 H       1  UNL1        0.0583
     56 H           0.6056    2.5331    2.6643 H       1  UNL1        0.0583
     57 H           0.6131    4.5348    1.2279 H       1  UNL1        0.0583
     58 H           1.7463    3.7259    0.1059 H       1  UNL1        0.0583
     59 H           7.2937    2.3576   -1.1932 H       1  UNL1        0.0660
     60 H           6.9841    0.9696   -2.2341 H       1  UNL1        0.0660
     61 H           5.8492    2.3891   -2.2021 H       1  UNL1        0.0660
     62 H           0.1436    3.8887   -1.6328 H       1  UNL1        0.0583
     63 H          -0.9987    4.6699   -0.5000 H       1  UNL1        0.0583
     64 H          -1.4596    1.9967   -1.9052 H       1  UNL1        0.0583
     65 H          -2.1855    3.5558   -2.4001 H       1  UNL1        0.0583
     66 H          -3.6198    1.3010   -1.8307 H       1  UNL1        0.0583
     67 H          -4.5501    2.8018   -1.7452 H       1  UNL1        0.0583
     68 H          -4.1519    0.8166    0.5594 H       1  UNL1        0.0583
     69 H          -5.1346    2.2884    0.6308 H       1  UNL1        0.0583
     70 H          -7.0753    0.9800    1.0764 H       1  UNL1        0.0583
     71 H          -6.0942   -0.4927    1.0153 H       1  UNL1        0.0583
     72 H          -8.4148    0.1570   -0.8736 H       1  UNL1        0.0582
     73 H          -7.4444   -1.3239   -0.9059 H       1  UNL1        0.0582
     74 H         -10.3582   -2.2186    1.0117 H       1  UNL1        0.0524
     75 H         -10.3858   -1.1389   -0.3988 H       1  UNL1        0.0524
     76 H          -9.3991   -2.6377   -0.4237 H       1  UNL1        0.0524
@<TRIPOS>BOND
     1     1    11    1
     2     1    19    1
     3     2    15    1
     4     2    26    1
     5     3    22    1
     6     3    28    1
     7     4    27    1
     8     4    29    1
     9     5    30    1
    10     5    31    1
    11     6    32    1
    12     6    33    1
    13     7    34    1
    14     7    35    1
    15     8    12    1
    16     8    24    1
    17     8    25    1
    18     9    10    1
    19     9    11    1
    20     9    13    1
    21     9    17    1
    22    10    12    1
    23    10    18    1
    24    10    36    1
    25    11    15    1
    26    11    37    1
    27    12    14    1
    28    12    38    1
    29    13    16   ar
    30    13    19   ar
    31    14    16    1
    32    14    39    1
    33    14    40    1
    34    15    20    1
    35    15    41    1
    36    16    21   ar
    37    17    42    1
    38    17    43    1
    39    17    44    1
    40    18    20    2
    41    18    45    1
    42    19    22   ar
    43    20    46    1
    44    21    23   ar
    45    21    47    1
    46    22    23   ar
    47    23    48    1
    48    24    49    1
    49    24    50    1
    50    24    51    1
    51    25    52    1
    52    25    53    1
    53    25    54    1
    54    26    27    1
    55    26    55    1
    56    26    56    1
    57    27    57    1
    58    27    58    1
    59    28    59    1
    60    28    60    1
    61    28    61    1
    62    29    30    1
    63    29    62    1
    64    29    63    1
    65    30    64    1
    66    30    65    1
    67    31    32    1
    68    31    66    1
    69    31    67    1
    70    32    68    1
    71    32    69    1
    72    33    34    1
    73    33    70    1
    74    33    71    1
    75    34    72    1
    76    34    73    1
    77    35    74    1
    78    35    75    1
    79    35    76    1
@<TRIPOS>MOLECULE
2519
 24 25 0 0 0
SMALL
GASTEIGER

@<TRIPOS>ATOM
      1 O           0.4700    2.5688    0.0006 O.2     1  UNL1       -0.2652
      2 O          -3.1271   -0.4436   -0.0003 O.2     1  UNL1       -0.2462
      3 N          -0.9686   -1.3125    0.0000 N.ar    1  UNL1       -0.2796
      4 N           2.2182    0.1412   -0.0003 N.ar    1  UNL1       -0.3277
      5 N          -1.3477    1.0797   -0.0001 N.ar    1  UNL1       -0.2622
      6 N           1.4119   -1.9372    0.0002 N.ar    1  UNL1       -0.2177
      7 C           0.8579    0.2592   -0.0008 C.ar    1  UNL1        0.1512
      8 C           0.3897   -1.0264   -0.0004 C.ar    1  UNL1        0.1678
      9 C           0.0307    1.4220   -0.0006 C.ar    1  UNL1        0.2822
     10 C          -1.9061   -0.2495   -0.0004 C.ar    1  UNL1        0.3331
     11 C           2.5032   -1.1998    0.0003 C.ar    1  UNL1        0.0986
     12 C          -1.4276   -2.6960    0.0008 C.3     1  UNL1        0.0181
     13 C           3.1926    1.2061    0.0003 C.3     1  UNL1        0.0135
     14 C          -2.2969    2.1881    0.0007 C.3     1  UNL1        0.0196
     15 H           3.5163   -1.5787    0.0008 H       1  UNL1        0.1029
     16 H          -1.0451   -3.1973   -0.8937 H       1  UNL1        0.0458
     17 H          -2.5186   -2.7596    0.0011 H       1  UNL1        0.0458
     18 H          -1.0447   -3.1963    0.8957 H       1  UNL1        0.0458
     19 H           4.1992    0.7801    0.0002 H       1  UNL1        0.0456
     20 H           3.0468    1.8092   -0.8992 H       1  UNL1        0.0456
     21 H           3.0466    1.8083    0.9004 H       1  UNL1        0.0456
     22 H          -1.8087    3.1651   -0.0003 H       1  UNL1        0.0458
     23 H          -2.9322    2.1027    0.8881 H       1  UNL1        0.0458
     24 H          -2.9346    2.1021   -0.8849 H       1  UNL1        0.0458
@<TRIPOS>BOND
     1     1     9    2
     2     2    10    2
     3     3     8   ar
     4     3    10   ar
     5     3    12    1
     6     4     7   ar
     7     4    11   ar
     8     4    13    1
     9     5     9   ar
    10     5    10   ar
    11     5    14    1
    12     6     8   ar
    13     6    11   ar
    14     7     8   ar
    15     7     9   ar
    16    11    15    1
    17    12    16    1
    18    12    17    1
    19    12    18    1
    20    13    19    1
    21    13    20    1
    22    13    21    1
    23    14    22    1
    24    14    23    1
    25    14    24    1
@<TRIPOS>MOLECULE
591302
 46 49 0 0 0
SMALL
GASTEIGER

@<TRIPOS>ATOM
      1 O           2.0672   -1.2157    1.2827 O.3     1  UNL1       -0.5031
      2 O           4.0800   -0.0202   -0.0258 O.3     1  UNL1       -0.4914
      3 N          -2.6694    1.5204    0.7189 N.3     1  UNL1       -0.3018
      4 C          -0.7912   -0.7291    0.6707 C.3     1  UNL1        0.0050
      5 C          -2.0780   -0.6700   -0.1999 C.3     1  UNL1       -0.0153
      6 C          -2.3761    0.8028   -0.5419 C.3     1  UNL1        0.0177
      7 C          -1.0770    0.0748    1.9687 C.3     1  UNL1       -0.0301
      8 C          -0.5385   -2.2167    1.0407 C.3     1  UNL1       -0.0429
      9 C          -2.0021   -1.5853   -1.4384 C.3     1  UNL1       -0.0480
     10 C           0.3896   -0.0483   -0.0456 C.ar    1  UNL1        0.0074
     11 C          -1.2385    1.3932   -1.4006 C.3     1  UNL1       -0.0113
     12 C          -1.5770    1.5013    1.6949 C.3     1  UNL1       -0.0003
     13 C          -0.4503   -3.1305   -0.1828 C.3     1  UNL1       -0.0522
     14 C          -1.7042   -3.0292   -1.0442 C.3     1  UNL1       -0.0527
     15 C           0.1560    0.9640   -1.0041 C.ar    1  UNL1       -0.0385
     16 C           1.7229   -0.3561    0.2814 C.ar    1  UNL1        0.1625
     17 C          -3.1742    2.8743    0.5133 C.3     1  UNL1       -0.0125
     18 C           1.2406    1.5935   -1.6389 C.ar    1  UNL1       -0.0546
     19 C           2.7912    0.2820   -0.3523 C.ar    1  UNL1        0.1616
     20 C           2.5507    1.2525   -1.3163 C.ar    1  UNL1       -0.0160
     21 C           4.6784    0.7424    1.0196 C.3     1  UNL1        0.0790
     22 H          -2.9209   -1.0484    0.4009 H       1  UNL1        0.0325
     23 H          -3.2952    0.8281   -1.1430 H       1  UNL1        0.0469
     24 H          -0.1837    0.1240    2.6043 H       1  UNL1        0.0286
     25 H          -1.8439   -0.4469    2.5579 H       1  UNL1        0.0286
     26 H          -1.3989   -2.5662    1.6319 H       1  UNL1        0.0274
     27 H           0.3050   -2.3842    1.7098 H       1  UNL1        0.0274
     28 H          -1.2317   -1.2516   -2.1415 H       1  UNL1        0.0269
     29 H          -2.9548   -1.5494   -1.9802 H       1  UNL1        0.0269
     30 H          -1.2915    2.4873   -1.4167 H       1  UNL1        0.0329
     31 H          -1.3931    1.0731   -2.4400 H       1  UNL1        0.0329
     32 H          -1.9301    1.9180    2.6467 H       1  UNL1        0.0427
     33 H          -0.7453    2.1395    1.3727 H       1  UNL1        0.0427
     34 H          -0.3240   -4.1680    0.1477 H       1  UNL1        0.0266
     35 H           0.4332   -2.8811   -0.7812 H       1  UNL1        0.0266
     36 H          -1.5841   -3.6410   -1.9454 H       1  UNL1        0.0265
     37 H          -2.5596   -3.4400   -0.4937 H       1  UNL1        0.0265
     38 H          -3.5663    3.2781    1.4537 H       1  UNL1        0.0391
     39 H          -4.0086    2.8770   -0.1965 H       1  UNL1        0.0391
     40 H          -2.4058    3.5636    0.1492 H       1  UNL1        0.0391
     41 H           1.0638    2.3615   -2.3884 H       1  UNL1        0.0622
     42 H           3.3756    1.7544   -1.8141 H       1  UNL1        0.0655
     43 H           3.0301   -1.3493    1.2829 H       1  UNL1        0.2923
     44 H           4.0840    0.6887    1.9374 H       1  UNL1        0.0660
     45 H           4.7925    1.7860    0.7097 H       1  UNL1        0.0660
     46 H           5.6700    0.3279    1.2212 H       1  UNL1        0.0660
@<TRIPOS>BOND
     1     1    16    1
     2     1    43    1
     3     2    19    1
     4     2    21    1
     5     3     6    1
     6     3    12    1
     7     3    17    1
     8     4     5    1
     9     4     7    1
    10     4     8    1
    11     4    10    1
    12     5     6    1
    13     5     9    1
    14     5    22    1
    15     6    11    1
    16     6    23    1
    17     7    12    1
    18     7    24    1
    19     7    25    1
    20     8    13    1
    21     8    26    1
    22     8    27    1
    23     9    14    1
    24     9    28    1
    25     9    29    1
    26    10    15   ar
    27    10    16   ar
    28    11    15    1
    29    11    30    1
    30    11    31    1
    31    12    32    1
    32    12    33    1
    33    13    14    1
    34    13    34    1
    35    13    35    1
    36    14    36    1
    37    14    37    1
    38    15    18   ar
    39    16    19   ar
    40    17    38    1
    41    17    39    1
    42    17    40    1
    43    18    20   ar
    44    18    41    1
    45    19    20   ar
    46    20    42    1
    47    21    44    1
    48    21    45    1
    49    21    46    1
@<TRIPOS>MOLECULE
5746694
 53 57 0 0 0
SMALL
GASTEIGER

@<TRIPOS>ATOM
      1 O          -0.5653    0.8843    1.5092 O.3     1  UNL1       -0.4798
      2 O           1.7712   -2.8678    0.3422 O.3     1  UNL1       -0.3820
      3 O          -2.4472   -0.6310    0.5172 O.3     1  UNL1       -0.4225
      4 O          -1.0148    3.6261    0.6612 O.3     1  UNL1       -0.4914
      5 O          -4.6095   -0.5359    0.0674 O.3     1  UNL1       -0.4341
      6 O          -3.4327   -2.4175   -0.5555 O.2     1  UNL1       -0.2028
      7 N           4.0270   -1.2466    0.1773 N.3     1  UNL1       -0.2990
      8 C           1.2816   -0.5222    0.7741 C.3     1  UNL1        0.0750
      9 C           1.6269   -1.5861   -0.2848 C.3     1  UNL1        0.1132
     10 C           3.0066   -1.1607   -0.8995 C.3     1  UNL1        0.0474
     11 C          -0.1564   -0.5195    1.3469 C.3     1  UNL1        0.1534
     12 C           2.3583   -0.4964    1.8800 C.3     1  UNL1       -0.0238
     13 C           1.2266    0.8102    0.0980 C.ar    1  UNL1        0.0141
     14 C           2.9357    0.2312   -1.6174 C.3     1  UNL1       -0.0086
     15 C           3.7806   -0.3527    1.3127 C.3     1  UNL1        0.0000
     16 C           2.0102    1.2236   -0.9648 C.ar    1  UNL1       -0.0381
     17 C          -1.1880   -1.2981    0.4882 C.3     1  UNL1        0.1623
     18 C           0.5088   -1.7367   -1.2887 C.2     1  UNL1       -0.0508
     19 C           0.1983    1.5726    0.6050 C.ar    1  UNL1        0.1667
     20 C          -0.7756   -1.5794   -0.9329 C.2     1  UNL1       -0.0414
     21 C           5.3982   -1.1295   -0.3073 C.3     1  UNL1       -0.0124
     22 C           1.8037    2.5194   -1.4408 C.ar    1  UNL1       -0.0546
     23 C          -0.0180    2.8574    0.1579 C.ar    1  UNL1        0.1618
     24 C           0.8085    3.3361   -0.8669 C.ar    1  UNL1       -0.0160
     25 C          -3.4925   -1.3081   -0.0427 C.2     1  UNL1        0.5108
     26 C          -2.2872    3.5545    0.0142 C.3     1  UNL1        0.0790
     27 C          -5.8073   -1.1010   -0.4756 C.3     1  UNL1        0.0931
     28 C          -6.9477   -0.1260   -0.2745 C.3     1  UNL1       -0.0305
     29 H           3.2859   -1.9143   -1.6491 H       1  UNL1        0.0497
     30 H          -0.1720   -0.9491    2.3569 H       1  UNL1        0.0784
     31 H           2.3007   -1.4258    2.4619 H       1  UNL1        0.0288
     32 H           2.1794    0.3215    2.5902 H       1  UNL1        0.0288
     33 H           2.5564    0.0568   -2.6334 H       1  UNL1        0.0329
     34 H           3.9287    0.6761   -1.7334 H       1  UNL1        0.0329
     35 H           3.9654    0.6924    1.0347 H       1  UNL1        0.0427
     36 H           4.4861   -0.5829    2.1210 H       1  UNL1        0.0427
     37 H          -1.3215   -2.2782    0.9692 H       1  UNL1        0.0819
     38 H           0.7543   -1.9958   -2.3142 H       1  UNL1        0.0599
     39 H          -1.5129   -1.7065   -1.7183 H       1  UNL1        0.0607
     40 H           0.9826   -3.0375    0.8846 H       1  UNL1        0.2107
     41 H           5.6486   -0.1169   -0.6383 H       1  UNL1        0.0391
     42 H           5.5802   -1.8213   -1.1369 H       1  UNL1        0.0391
     43 H           6.1031   -1.4048    0.4854 H       1  UNL1        0.0391
     44 H           2.3898    2.8990   -2.2734 H       1  UNL1        0.0622
     45 H           0.6621    4.3410   -1.2566 H       1  UNL1        0.0655
     46 H          -2.6815    2.5341    0.0552 H       1  UNL1        0.0660
     47 H          -2.2062    3.8857   -1.0260 H       1  UNL1        0.0660
     48 H          -2.9771    4.2187    0.5416 H       1  UNL1        0.0660
     49 H          -5.6681   -1.2925   -1.5455 H       1  UNL1        0.0696
     50 H          -6.0311   -2.0434    0.0366 H       1  UNL1        0.0696
     51 H          -7.8811   -0.5270   -0.6793 H       1  UNL1        0.0262
     52 H          -7.0875    0.0893    0.7901 H       1  UNL1        0.0262
     53 H          -6.7301    0.8280   -0.7658 H       1  UNL1        0.0262
@<TRIPOS>BOND
     1     1    11    1
     2     1    19    1
     3     2     9    1
     4     2    40    1
     5     3    17    1
     6     3    25    1
     7     4    23    1
     8     4    26    1
     9     5    25    1
    10     5    27    1
    11     6    25    2
    12     7    10    1
    13     7    15    1
    14     7    21    1
    15     8     9    1
    16     8    11    1
    17     8    12    1
    18     8    13    1
    19     9    10    1
    20     9    18    1
    21    10    14    1
    22    10    29    1
    23    11    17    1
    24    11    30    1
    25    12    15    1
    26    12    31    1
    27    12    32    1
    28    13    16   ar
    29    13    19   ar
    30    14    16    1
    31    14    33    1
    32    14    34    1
    33    15    35    1
    34    15    36    1
    35    16    22   ar
    36    17    20    1
    37    17    37    1
    38    18    20    2
    39    18    38    1
    40    19    23   ar
    41    20    39    1
    42    21    41    1
    43    21    42    1
    44    21    43    1
    45    22    24   ar
    46    22    44    1
    47    23    24   ar
    48    24    45    1
    49    26    46    1
    50    26    47    1
    51    26    48    1
    52    27    28    1
    53    27    49    1
    54    27    50    1
    55    28    51    1
    56    28    52    1
    57    28    53    1
@<TRIPOS>MOLECULE
15942733
 44 49 0 0 0
SMALL
GASTEIGER

@<TRIPOS>ATOM
      1 O          -1.1547    2.7530   -1.6691 O.3     1  UNL1       -0.3651
      2 O           1.6337    0.7726    1.2508 O.3     1  UNL1       -0.4813
      3 O           1.4906    3.3870    0.5248 O.3     1  UNL1       -0.3854
      4 O           3.8620   -0.9349    0.5525 O.3     1  UNL1       -0.4914
      5 N          -3.2262   -1.2012    0.2903 N.3     1  UNL1       -0.3017
      6 C          -0.7175    0.2969    0.7311 C.3     1  UNL1        0.0468
      7 C          -1.6903    0.6686   -0.4026 C.3     1  UNL1        0.0170
      8 C          -0.9543    1.3427   -1.5383 C.3     1  UNL1        0.0931
      9 C           0.1133    2.3346   -1.1447 C.3     1  UNL1        0.1148
     10 C           0.2985    1.3762    1.1904 C.3     1  UNL1        0.1387
     11 C          -2.4161   -0.6466   -0.8237 C.3     1  UNL1        0.0203
     12 C           0.2966    2.6421    0.3123 C.3     1  UNL1        0.1212
     13 C          -1.5114   -0.2857    1.9174 C.3     1  UNL1       -0.0265
     14 C           0.2467   -0.6953    0.1772 C.ar    1  UNL1        0.0114
     15 C          -1.4283   -1.7560   -1.3354 C.3     1  UNL1       -0.0113
     16 C          -2.4434   -1.4377    1.5117 C.3     1  UNL1       -0.0002
     17 C          -0.0484   -1.6987   -0.7314 C.ar    1  UNL1       -0.0383
     18 C           1.5357   -0.4013    0.5569 C.ar    1  UNL1        0.1665
     19 C          -4.4234   -0.4085    0.5647 C.3     1  UNL1       -0.0125
     20 C           1.0014   -2.5255   -1.1357 C.ar    1  UNL1       -0.0546
     21 C           2.5887   -1.2023    0.1694 C.ar    1  UNL1        0.1618
     22 C           2.3086   -2.2892   -0.6682 C.ar    1  UNL1       -0.0160
     23 C           4.6382   -0.0910   -0.3004 C.3     1  UNL1        0.0790
     24 H          -2.4271    1.3890   -0.0251 H       1  UNL1        0.0352
     25 H          -0.8228    0.7634   -2.4395 H       1  UNL1        0.0626
     26 H           0.9952    2.4227   -1.7617 H       1  UNL1        0.0649
     27 H           0.0918    1.6954    2.2204 H       1  UNL1        0.0769
     28 H          -3.0949   -0.4342   -1.6608 H       1  UNL1        0.0469
     29 H          -0.5333    3.2805    0.6399 H       1  UNL1        0.0657
     30 H          -2.1133    0.5145    2.3679 H       1  UNL1        0.0287
     31 H          -0.8330   -0.6451    2.7021 H       1  UNL1        0.0287
     32 H          -1.3147   -1.6209   -2.4195 H       1  UNL1        0.0329
     33 H          -1.8566   -2.7561   -1.1925 H       1  UNL1        0.0329
     34 H          -1.8462   -2.3468    1.3699 H       1  UNL1        0.0427
     35 H          -3.1065   -1.6810    2.3521 H       1  UNL1        0.0427
     36 H           2.2420    2.8048    0.3186 H       1  UNL1        0.2101
     37 H          -5.0748   -0.9404    1.2674 H       1  UNL1        0.0391
     38 H          -5.0113   -0.2640   -0.3485 H       1  UNL1        0.0391
     39 H          -4.2033    0.5744    0.9922 H       1  UNL1        0.0391
     40 H           0.8253   -3.3325   -1.8418 H       1  UNL1        0.0622
     41 H           3.1145   -2.9380   -1.0034 H       1  UNL1        0.0655
     42 H           4.1671    0.8923   -0.3990 H       1  UNL1        0.0660
     43 H           4.7592   -0.5515   -1.2860 H       1  UNL1        0.0660
     44 H           5.6256    0.0365    0.1512 H       1  UNL1        0.0660
@<TRIPOS>BOND
     1     1     8    1
     2     1     9    1
     3     2    10    1
     4     2    18    1
     5     3    12    1
     6     3    36    1
     7     4    21    1
     8     4    23    1
     9     5    11    1
    10     5    16    1
    11     5    19    1
    12     6     7    1
    13     6    10    1
    14     6    13    1
    15     6    14    1
    16     7     8    1
    17     7    11    1
    18     7    24    1
    19     8     9    1
    20     8    25    1
    21     9    12    1
    22     9    26    1
    23    10    12    1
    24    10    27    1
    25    11    15    1
    26    11    28    1
    27    12    29    1
    28    13    16    1
    29    13    30    1
    30    13    31    1
    31    14    17   ar
    32    14    18   ar
    33    15    17    1
    34    15    32    1
    35    15    33    1
    36    16    34    1
    37    16    35    1
    38    17    20   ar
    39    18    21   ar
    40    19    37    1
    41    19    38    1
    42    19    39    1
    43    20    22   ar
    44    20    40    1
    45    21    22   ar
    46    22    41    1
    47    23    42    1
    48    23    43    1
    49    23    44    1
@<TRIPOS>MOLECULE
2244
 21 21 0 0 0
SMALL
GASTEIGER

@<TRIPOS>ATOM
      1 O           1.2333    0.5540    0.7792 O.3     1  UNL1       -0.4252
      2 O          -0.6952   -2.7148   -0.7502 O.3     1  UNL1       -0.4770
      3 O           0.7958   -2.1843    0.8685 O.2     1  UNL1       -0.2450
      4 O           1.7813    0.8105   -1.4821 O.2     1  UNL1       -0.2507
      5 C          -0.0857    0.6088    0.4403 C.ar    1  UNL1        0.1456
      6 C          -0.7927   -0.5515    0.1244 C.ar    1  UNL1        0.1010
      7 C          -0.7288    1.8464    0.4133 C.ar    1  UNL1       -0.0184
      8 C          -2.1426   -0.4741   -0.2184 C.ar    1  UNL1       -0.0442
      9 C          -2.0787    1.9238    0.0706 C.ar    1  UNL1       -0.0582
     10 C          -2.7855    0.7636   -0.2453 C.ar    1  UNL1       -0.0608
     11 C          -0.1409   -1.8536    0.1477 C.2     1  UNL1        0.3404
     12 C           2.1094    0.6715   -0.3113 C.2     1  UNL1        0.3092
     13 C           3.5305    0.5996    0.1635 C.3     1  UNL1        0.0336
     14 H          -0.1851    2.7545    0.6593 H       1  UNL1        0.0654
     15 H          -2.7247   -1.3605   -0.4564 H       1  UNL1        0.0627
     16 H          -2.5797    2.8872    0.0506 H       1  UNL1        0.0619
     17 H          -3.8374    0.8238   -0.5090 H       1  UNL1        0.0618
     18 H           3.7290    1.4184    0.8593 H       1  UNL1        0.0342
     19 H           4.2045    0.6969   -0.6924 H       1  UNL1        0.0342
     20 H           3.7105   -0.3659    0.6426 H       1  UNL1        0.0342
     21 H          -0.2555   -3.5916   -0.7337 H       1  UNL1        0.2954
@<TRIPOS>BOND
     1     1     5    1
     2     1    12    1
     3     2    11    1
     4     2    21    1
     5     3    11    2
     6     4    12    2
     7     5     6   ar
     8     5     7   ar
     9     6     8   ar
    10     6    11    1
    11     7     9   ar
    12     7    14    1
    13     8    10   ar
    14     8    15    1
    15     9    10   ar
    16     9    16    1
    17    10    17    1
    18    12    13    1
    19    13    18    1
    20    13    19    1
    21    13    20    1
@<TRIPOS>MOLECULE
61063
 44 48 0 0 0
SMALL
GASTEIGER

@<TRIPOS>ATOM
      1 O           2.0931    0.8032    1.2343 O.3     1  UNL1       -0.4811
      2 O           2.6392    2.7528   -0.4400 O.3     1  UNL1       -0.3841
      3 O           4.0923   -1.2420    0.7517 O.3     1  UNL1       -0.5033
      4 N          -3.2415   -0.2929    0.2420 N.4     1  UNL1        0.2418
      5 C          -0.2675    0.6748    0.6609 C.3     1  UNL1        0.0553
      6 C          -1.1812    0.9155   -0.5268 C.3     1  UNL1        0.0340
      7 C          -1.9521   -0.4477   -0.4836 C.3     1  UNL1       -0.0082
      8 C          -1.2394    0.4977    1.9119 C.3     1  UNL1        0.0015
      9 C           0.9256    1.6238    0.8799 C.3     1  UNL1        0.1402
     10 C           0.5555   -0.5597    0.2407 C.ar    1  UNL1        0.0120
     11 C          -2.8265    0.5141    1.5907 C.3     1  UNL1       -0.0294
     12 C          -1.2827   -1.5917   -1.2392 C.3     1  UNL1        0.0166
     13 C           0.1552   -1.6084   -0.6389 C.ar    1  UNL1       -0.0345
     14 C          -0.4301    1.3147   -1.7680 C.2     1  UNL1       -0.0761
     15 C           1.2352    2.5242   -0.3505 C.3     1  UNL1        0.1110
     16 C           1.8596   -0.4092    0.6443 C.ar    1  UNL1        0.1663
     17 C          -3.8758   -1.6342    0.5668 C.3     1  UNL1       -0.0412
     18 C          -4.2698    0.5283   -0.5431 C.3     1  UNL1       -0.0412
     19 C           0.6922    2.0463   -1.6745 C.2     1  UNL1       -0.0558
     20 C           1.1031   -2.5767   -0.9572 C.ar    1  UNL1       -0.0544
     21 C           2.8037   -1.3693    0.3450 C.ar    1  UNL1        0.1588
     22 C           2.4123   -2.4637   -0.4462 C.ar    1  UNL1       -0.0162
     23 H          -1.8358    1.7715   -0.3296 H       1  UNL1        0.0408
     24 H          -1.6282   -0.9862    0.4097 H       1  UNL1        0.0861
     25 H          -1.0679    1.3078    2.6307 H       1  UNL1        0.0327
     26 H          -1.0029   -0.4358    2.4391 H       1  UNL1        0.0327
     27 H           0.7586    2.2826    1.7404 H       1  UNL1        0.0772
     28 H          -3.3945    0.0688    2.4137 H       1  UNL1        0.0815
     29 H          -3.1592    1.5483    1.4494 H       1  UNL1        0.0815
     30 H          -1.2393   -1.3989   -2.3150 H       1  UNL1        0.0368
     31 H          -1.7660   -2.5591   -1.0656 H       1  UNL1        0.0368
     32 H          -0.8322    1.0549   -2.7415 H       1  UNL1        0.0575
     33 H           0.7764    3.5054   -0.1744 H       1  UNL1        0.0675
     34 H          -4.0888   -2.1544   -0.3715 H       1  UNL1        0.0778
     35 H          -3.1879   -2.2163    1.1875 H       1  UNL1        0.0778
     36 H          -4.8022   -1.4509    1.1193 H       1  UNL1        0.0778
     37 H          -5.1682    0.6253    0.0733 H       1  UNL1        0.0778
     38 H          -3.8646    1.5160   -0.7693 H       1  UNL1        0.0778
     39 H          -4.4905   -0.0096   -1.4697 H       1  UNL1        0.0778
     40 H           1.1900    2.3694   -2.5841 H       1  UNL1        0.0596
     41 H           0.8496   -3.4073   -1.6090 H       1  UNL1        0.0622
     42 H           3.1392   -3.2289   -0.7113 H       1  UNL1        0.0655
     43 H           3.0707    1.8938   -0.5870 H       1  UNL1        0.2104
     44 H           4.6002   -2.0071    0.4312 H       1  UNL1        0.2923
@<TRIPOS>UNITY_ATOM_ATTR
4 1
charge 1
@<TRIPOS>BOND
     1     1     9    1
     2     1    16    1
     3     2    15    1
     4     2    43    1
     5     3    21    1
     6     3    44    1
     7     4     7    1
     8     4    11    1
     9     4    17    1
    10     4    18    1
    11     5     6    1
    12     5     8    1
    13     5     9    1
    14     5    10    1
    15     6     7    1
    16     6    14    1
    17     6    23    1
    18     7    12    1
    19     7    24    1
    20     8    11    1
    21     8    25    1
    22     8    26    1
    23     9    15    1
    24     9    27    1
    25    10    13   ar
    26    10    16   ar
    27    11    28    1
    28    11    29    1
    29    12    13    1
    30    12    30    1
    31    12    31    1
    32    13    20   ar
    33    14    19    2
    34    14    32    1
    35    15    19    1
    36    15    33    1
    37    16    21   ar
    38    17    34    1
    39    17    35    1
    40    17    36    1
    41    18    37    1
    42    18    38    1
    43    18    39    1
    44    19    40    1
    45    20    22   ar
    46    20    41    1
    47    21    22   ar
    48    22    42    1
@<TRIPOS>MOLECULE
18611399
 56 60 0 0 0
SMALL
GASTEIGER

@<TRIPOS>ATOM
      1 O           1.4581   -0.2629   -0.9438 O.3     1  UNL1       -0.4521
      2 O           2.7305   -1.8112    0.8397 O.3     1  UNL1       -0.4914
      3 N          -3.2261    1.7287    1.1808 N.3     1  UNL1       -0.3018
      4 C          -1.4299    0.3826   -0.7736 C.3     1  UNL1        0.0050
      5 C          -2.9530    0.0890   -0.7067 C.3     1  UNL1       -0.0153
      6 C          -3.4365    0.3291    0.7350 C.3     1  UNL1        0.0177
      7 C          -1.2324    1.8705   -0.3727 C.3     1  UNL1       -0.0301
      8 C          -0.9779    0.1872   -2.2469 C.3     1  UNL1       -0.0429
      9 C          -3.3152   -1.3079   -1.2502 C.3     1  UNL1       -0.0480
     10 C          -0.6600   -0.4832    0.2412 C.ar    1  UNL1        0.0083
     11 C          -2.7552   -0.6575    1.7064 C.3     1  UNL1       -0.0113
     12 C          -1.8497    2.2092    0.9934 C.3     1  UNL1       -0.0003
     13 C          -1.3219   -1.1979   -2.7984 C.3     1  UNL1       -0.0522
     14 C          -2.8135   -1.4919   -2.6801 C.3     1  UNL1       -0.0527
     15 C          -1.3012   -0.9512    1.4115 C.ar    1  UNL1       -0.0384
     16 C           0.7065   -0.7721    0.0739 C.ar    1  UNL1        0.1738
     17 C          -4.1949    2.6490    0.5841 C.3     1  UNL1       -0.0125
     18 C          -0.5877   -1.7274    2.3409 C.ar    1  UNL1       -0.0546
     19 C           1.4050   -1.5393    1.0086 C.ar    1  UNL1        0.1624
     20 C           0.7571   -2.0222    2.1384 C.ar    1  UNL1       -0.0160
     21 C           2.5527    0.5129   -0.6062 C.ar    1  UNL1        0.1286
     22 C           3.0610   -2.9948    0.1170 C.3     1  UNL1        0.0790
     23 C           2.4356    1.4932    0.3791 C.ar    1  UNL1       -0.0193
     24 C           3.7733    0.3154   -1.2517 C.ar    1  UNL1       -0.0193
     25 C           3.5390    2.2761    0.7189 C.ar    1  UNL1       -0.0583
     26 C           4.8767    1.0982   -0.9120 C.ar    1  UNL1       -0.0583
     27 C           4.7595    2.0785    0.0734 C.ar    1  UNL1       -0.0615
     28 H          -3.4726    0.8001   -1.3652 H       1  UNL1        0.0325
     29 H          -4.5136    0.1219    0.7966 H       1  UNL1        0.0469
     30 H          -1.7099    2.5105   -1.1276 H       1  UNL1        0.0286
     31 H          -0.1778    2.1538   -0.3823 H       1  UNL1        0.0286
     32 H           0.0648    0.4340   -2.4433 H       1  UNL1        0.0274
     33 H          -1.5255    0.9156   -2.8647 H       1  UNL1        0.0274
     34 H          -4.4039   -1.4380   -1.2313 H       1  UNL1        0.0269
     35 H          -2.8961   -2.1061   -0.6286 H       1  UNL1        0.0269
     36 H          -3.2972   -1.6121    1.6676 H       1  UNL1        0.0329
     37 H          -2.8535   -0.2912    2.7370 H       1  UNL1        0.0329
     38 H          -1.2228    1.7927    1.7907 H       1  UNL1        0.0427
     39 H          -1.7975    3.2941    1.1530 H       1  UNL1        0.0427
     40 H          -0.7486   -1.9698   -2.2727 H       1  UNL1        0.0266
     41 H          -1.0275   -1.2516   -3.8530 H       1  UNL1        0.0266
     42 H          -3.3704   -0.8242   -3.3491 H       1  UNL1        0.0265
     43 H          -3.0163   -2.5157   -3.0140 H       1  UNL1        0.0265
     44 H          -5.2194    2.3112    0.7757 H       1  UNL1        0.0391
     45 H          -4.0683    2.7674   -0.4965 H       1  UNL1        0.0391
     46 H          -4.1096    3.6401    1.0439 H       1  UNL1        0.0391
     47 H          -1.0821   -2.1004    3.2348 H       1  UNL1        0.0622
     48 H           1.2939   -2.6177    2.8715 H       1  UNL1        0.0655
     49 H           4.1494   -3.0493    0.0280 H       1  UNL1        0.0660
     50 H           2.6286   -2.9699   -0.8883 H       1  UNL1        0.0660
     51 H           2.7088   -3.8807    0.6547 H       1  UNL1        0.0660
     52 H           1.5073    1.6663    0.9130 H       1  UNL1        0.0654
     53 H           3.8701   -0.4469   -2.0199 H       1  UNL1        0.0654
     54 H           3.4489    3.0371    1.4885 H       1  UNL1        0.0619
     55 H           5.8272    0.9440   -1.4143 H       1  UNL1        0.0619
     56 H           5.6190    2.6873    0.3386 H       1  UNL1        0.0618
@<TRIPOS>BOND
     1     1    16    1
     2     1    21    1
     3     2    19    1
     4     2    22    1
     5     3     6    1
     6     3    12    1
     7     3    17    1
     8     4     5    1
     9     4     7    1
    10     4     8    1
    11     4    10    1
    12     5     6    1
    13     5     9    1
    14     5    28    1
    15     6    11    1
    16     6    29    1
    17     7    12    1
    18     7    30    1
    19     7    31    1
    20     8    13    1
    21     8    32    1
    22     8    33    1
    23     9    14    1
    24     9    34    1
    25     9    35    1
    26    10    15   ar
    27    10    16   ar
    28    11    15    1
    29    11    36    1
    30    11    37    1
    31    12    38    1
    32    12    39    1
    33    13    14    1
    34    13    40    1
    35    13    41    1
    36    14    42    1
    37    14    43    1
    38    15    18   ar
    39    16    19   ar
    40    17    44    1
    41    17    45    1
    42    17    46    1
    43    18    20   ar
    44    18    47    1
    45    19    20   ar
    46    20    48    1
    47    21    23   ar
    48    21    24   ar
    49    22    49    1
    50    22    50    1
    51    22    51    1
    52    23    25   ar
    53    23    52    1
    54    24    26   ar
    55    24    53    1
    56    25    27   ar
    57    25    54    1
    58    26    27   ar
    59    26    55    1
    60    27    56    1
