@<TRIPOS>MOLECULE
154925832
 59 62 0 0 0
SMALL
GASTEIGER

@<TRIPOS>ATOM
      1 S           2.6777    0.9167    1.8156 S.2     1  UNL1       -0.0926
      2 O          -3.4780   -1.7041   -1.1056 O.3     1  UNL1       -0.3732
      3 O          -6.8095   -1.7965    1.6320 O.3     1  UNL1       -0.3917
      4 O           2.4370    0.3754   -2.0040 O.3     1  UNL1       -0.4941
      5 N          -2.6158    1.7397    0.0344 N.ar    1  UNL1       -0.2593
      6 N           1.9227   -2.1473    1.1614 N.4     1  UNL1        0.2308
      7 C          -3.5817   -1.0970    0.1878 C.3     1  UNL1        0.0728
      8 C          -1.1415   -0.2325   -0.0614 C.3     1  UNL1        0.0224
      9 C          -2.1927   -0.9539    0.8332 C.3     1  UNL1       -0.0123
     10 C          -4.4808   -2.0092    1.0377 C.3     1  UNL1        0.0024
     11 C          -4.4284    0.1820    0.1498 C.3     1  UNL1       -0.0213
     12 C          -5.9002   -1.7207    0.5465 C.3     1  UNL1        0.0580
     13 C          -5.8625   -0.3127   -0.0491 C.3     1  UNL1       -0.0242
     14 C          -1.1858   -0.9535   -1.4364 C.3     1  UNL1       -0.0181
     15 C           0.2670   -0.4668    0.5390 C.3     1  UNL1       -0.0013
     16 C          -2.5969   -1.0429   -2.0073 C.3     1  UNL1        0.0492
     17 C          -1.3476    1.2945   -0.1120 C.ar    1  UNL1        0.0478
     18 C           0.6009   -1.9512    0.5778 C.3     1  UNL1       -0.0325
     19 C          -0.2522    2.1219   -0.3004 C.ar    1  UNL1       -0.0398
     20 C          -0.4725    3.4942   -0.3412 C.ar    1  UNL1       -0.0586
     21 C          -2.7910    3.0793   -0.0106 C.ar    1  UNL1        0.0279
     22 C           2.9408   -1.4501    0.3884 C.3     1  UNL1        0.0021
     23 C          -1.7631    3.9901   -0.1945 C.ar    1  UNL1       -0.0436
     24 C           2.6950    0.0347    0.3480 C.ar    1  UNL1        0.0756
     25 C           2.4679    0.8435   -0.7438 C.ar    1  UNL1        0.1353
     26 C           2.2774    2.2050   -0.3706 C.ar    1  UNL1       -0.0124
     27 C           2.3660    2.3853    0.9923 C.ar    1  UNL1       -0.0203
     28 C           2.6504   -1.0299   -2.1974 C.3     1  UNL1        0.0788
     29 H          -6.8125   -2.6984    1.9889 H       1  UNL1        0.2098
     30 H           2.1376   -3.1444    1.1741 H       1  UNL1        0.2017
     31 H           1.9192   -1.7714    2.1097 H       1  UNL1        0.2017
     32 H          -1.8254   -1.9333    1.0585 H       1  UNL1        0.0302
     33 H          -2.3210   -0.3471    1.7051 H       1  UNL1        0.0302
     34 H          -4.3853   -1.7715    2.0766 H       1  UNL1        0.0318
     35 H          -4.2197   -3.0421    0.9381 H       1  UNL1        0.0318
     36 H          -4.1288    0.8097   -0.6633 H       1  UNL1        0.0294
     37 H          -4.3200    0.7679    1.0386 H       1  UNL1        0.0294
     38 H          -6.2264   -2.4315   -0.1837 H       1  UNL1        0.0594
     39 H          -6.1063   -0.3414   -1.0906 H       1  UNL1        0.0291
     40 H          -6.5727    0.3346    0.4216 H       1  UNL1        0.0291
     41 H          -0.8016   -1.9448   -1.3159 H       1  UNL1        0.0296
     42 H          -0.5952   -0.3814   -2.1211 H       1  UNL1        0.0296
     43 H           0.2928   -0.0758    1.5346 H       1  UNL1        0.0326
     44 H           0.9878    0.0297   -0.0764 H       1  UNL1        0.0326
     45 H          -2.9625   -0.0540   -2.1899 H       1  UNL1        0.0560
     46 H          -2.5587   -1.6058   -2.9164 H       1  UNL1        0.0560
     47 H          -0.1281   -2.4635    1.1702 H       1  UNL1        0.0814
     48 H           0.5947   -2.3399   -0.4191 H       1  UNL1        0.0814
     49 H           0.6973    1.7318   -0.4072 H       1  UNL1        0.0636
     50 H           0.3188    4.1420   -0.4797 H       1  UNL1        0.0619
     51 H          -3.7493    3.4463    0.0987 H       1  UNL1        0.0829
     52 H           2.9355   -1.8291   -0.6123 H       1  UNL1        0.0873
     53 H           3.8872   -1.6173    0.8587 H       1  UNL1        0.0873
     54 H          -1.9497    5.0047   -0.2217 H       1  UNL1        0.0633
     55 H           2.0945    2.9669   -1.0423 H       1  UNL1        0.0659
     56 H           2.2573    3.2979    1.4617 H       1  UNL1        0.0694
     57 H           2.5986   -1.2582   -3.2415 H       1  UNL1        0.0660
     58 H           1.8967   -1.5804   -1.6741 H       1  UNL1        0.0660
     59 H           3.6150   -1.2994   -1.8207 H       1  UNL1        0.0660
@<TRIPOS>UNITY_ATOM_ATTR
6 1
charge 1
@<TRIPOS>BOND
     1     1    24   ar
     2     1    27   ar
     3     2    16    1
     4     3    12    1
     5     3    29    1
     6     4    25    1
     7     4    28    1
     8     5    17   ar
     9     5    21   ar
    10     6    18    1
    11     6    22    1
    12     6    30    1
    13     6    31    1
    14     7     2    1
    15     7     9    1
    16     7    10    1
    17     7    11    1
    18     8     9    1
    19     8    14    1
    20     8    15    1
    21     8    17    1
    22     9    32    1
    23     9    33    1
    24    10    12    1
    25    10    34    1
    26    10    35    1
    27    11    13    1
    28    11    36    1
    29    11    37    1
    30    12    13    1
    31    12    38    1
    32    13    39    1
    33    13    40    1
    34    14    16    1
    35    14    41    1
    36    14    42    1
    37    15    18    1
    38    15    43    1
    39    15    44    1
    40    16    45    1
    41    16    46    1
    42    17    19   ar
    43    18    47    1
    44    18    48    1
    45    19    20   ar
    46    19    49    1
    47    20    23   ar
    48    20    50    1
    49    21    23   ar
    50    21    51    1
    51    22    24    1
    52    22    52    1
    53    22    53    1
    54    23    54    1
    55    24    25   ar
    56    25    26   ar
    57    26    27   ar
    58    26    55    1
    59    27    56    1
    60    28    57    1
    61    28    58    1
    62    28    59    1
@<TRIPOS>MOLECULE
154925832
 59 62 0 0 0
SMALL
GASTEIGER

@<TRIPOS>ATOM
      1 S           4.7186    3.1616    0.1403 S.2     1  UNL1       -0.0926
      2 O          -3.4780   -1.7041   -1.1056 O.3     1  UNL1       -0.3732
      3 O          -6.8095   -1.7965    1.6320 O.3     1  UNL1       -0.3917
      4 O           1.3376    2.3022   -1.5242 O.3     1  UNL1       -0.4941
      5 N          -0.2395    2.0499   -0.2834 N.ar    1  UNL1       -0.2593
      6 N           2.6511   -0.0149    0.2847 N.4     1  UNL1        0.2308
      7 C          -3.5817   -1.0970    0.1878 C.3     1  UNL1        0.0728
      8 C          -1.1415   -0.2325   -0.0614 C.3     1  UNL1        0.0224
      9 C          -2.1927   -0.9539    0.8332 C.3     1  UNL1       -0.0123
     10 C          -4.4808   -2.0092    1.0377 C.3     1  UNL1        0.0024
     11 C          -4.4284    0.1820    0.1498 C.3     1  UNL1       -0.0213
     12 C          -5.9002   -1.7207    0.5465 C.3     1  UNL1        0.0580
     13 C          -5.8625   -0.3127   -0.0491 C.3     1  UNL1       -0.0242
     14 C          -1.1858   -0.9535   -1.4364 C.3     1  UNL1       -0.0181
     15 C           0.2670   -0.4668    0.5390 C.3     1  UNL1       -0.0013
     16 C          -2.5969   -1.0429   -2.0073 C.3     1  UNL1        0.0492
     17 C          -1.3476    1.2945   -0.1120 C.ar    1  UNL1        0.0478
     18 C           1.3342    0.2337   -0.2898 C.3     1  UNL1       -0.0325
     19 C          -2.6265    1.8119    0.0171 C.ar    1  UNL1       -0.0398
     20 C          -2.7778    3.1932   -0.0330 C.ar    1  UNL1       -0.0586
     21 C          -0.4257    3.3881   -0.3272 C.ar    1  UNL1        0.0279
     22 C           3.6886    0.6598   -0.4825 C.3     1  UNL1        0.0021
     23 C          -1.6614    4.0034   -0.2080 C.ar    1  UNL1       -0.0436
     24 C           3.4921    2.1524   -0.4994 C.ar    1  UNL1        0.0756
     25 C           2.4212    2.8776   -0.9739 C.ar    1  UNL1        0.1353
     26 C           2.6102    4.2800   -0.8102 C.ar    1  UNL1       -0.0124
     27 C           3.8183    4.5737   -0.2168 C.ar    1  UNL1       -0.0203
     28 C           0.6352    3.0374   -2.5361 C.3     1  UNL1        0.0788
     29 H          -6.8125   -2.6984    1.9889 H       1  UNL1        0.2098
     30 H           2.8328   -1.0186    0.2815 H       1  UNL1        0.2017
     31 H           2.6641    0.3464    1.2385 H       1  UNL1        0.2017
     32 H          -1.8254   -1.9333    1.0585 H       1  UNL1        0.0302
     33 H          -2.3210   -0.3471    1.7051 H       1  UNL1        0.0302
     34 H          -4.3853   -1.7715    2.0766 H       1  UNL1        0.0318
     35 H          -4.2197   -3.0421    0.9381 H       1  UNL1        0.0318
     36 H          -4.1288    0.8097   -0.6633 H       1  UNL1        0.0294
     37 H          -4.3200    0.7679    1.0386 H       1  UNL1        0.0294
     38 H          -6.2264   -2.4315   -0.1837 H       1  UNL1        0.0594
     39 H          -6.1063   -0.3414   -1.0906 H       1  UNL1        0.0291
     40 H          -6.5727    0.3346    0.4216 H       1  UNL1        0.0291
     41 H          -0.8016   -1.9448   -1.3159 H       1  UNL1        0.0296
     42 H          -0.5952   -0.3814   -2.1211 H       1  UNL1        0.0296
     43 H           0.4702   -1.5172    0.5562 H       1  UNL1        0.0326
     44 H           0.2867   -0.0660    1.5309 H       1  UNL1        0.0326
     45 H          -2.9625   -0.0540   -2.1899 H       1  UNL1        0.0560
     46 H          -2.5587   -1.6058   -2.9164 H       1  UNL1        0.0560
     47 H           1.3078   -0.1407   -1.2918 H       1  UNL1        0.0814
     48 H           1.1438    1.2866   -0.2920 H       1  UNL1        0.0814
     49 H          -3.4411    1.1916    0.1463 H       1  UNL1        0.0636
     50 H          -3.7150    3.6155    0.0593 H       1  UNL1        0.0619
     51 H           0.4036    3.9884   -0.4574 H       1  UNL1        0.0829
     52 H           3.6666    0.2964   -1.4887 H       1  UNL1        0.0873
     53 H           4.6309    0.4542   -0.0190 H       1  UNL1        0.0873
     54 H          -1.7504    5.0308   -0.2479 H       1  UNL1        0.0633
     55 H           1.9229    4.9923   -1.1019 H       1  UNL1        0.0659
     56 H           4.1425    5.5317   -0.0117 H       1  UNL1        0.0694
     57 H          -0.1985    2.4621   -2.8810 H       1  UNL1        0.0660
     58 H           1.2946    3.2363   -3.3549 H       1  UNL1        0.0660
     59 H           0.2855    3.9623   -2.1271 H       1  UNL1        0.0660
@<TRIPOS>UNITY_ATOM_ATTR
6 1
charge 1
@<TRIPOS>BOND
     1     1    24   ar
     2     1    27   ar
     3     2    16    1
     4     3    12    1
     5     3    29    1
     6     4    25    1
     7     4    28    1
     8     5    17   ar
     9     5    21   ar
    10     6    18    1
    11     6    22    1
    12     6    30    1
    13     6    31    1
    14     7     2    1
    15     7     9    1
    16     7    10    1
    17     7    11    1
    18     8     9    1
    19     8    14    1
    20     8    15    1
    21     8    17    1
    22     9    32    1
    23     9    33    1
    24    10    12    1
    25    10    34    1
    26    10    35    1
    27    11    13    1
    28    11    36    1
    29    11    37    1
    30    12    13    1
    31    12    38    1
    32    13    39    1
    33    13    40    1
    34    14    16    1
    35    14    41    1
    36    14    42    1
    37    15    18    1
    38    15    43    1
    39    15    44    1
    40    16    45    1
    41    16    46    1
    42    17    19   ar
    43    18    47    1
    44    18    48    1
    45    19    20   ar
    46    19    49    1
    47    20    23   ar
    48    20    50    1
    49    21    23   ar
    50    21    51    1
    51    22    24    1
    52    22    52    1
    53    22    53    1
    54    23    54    1
    55    24    25   ar
    56    25    26   ar
    57    26    27   ar
    58    26    55    1
    59    27    56    1
    60    28    57    1
    61    28    58    1
    62    28    59    1
@<TRIPOS>MOLECULE
154925832
 59 62 0 0 0
SMALL
GASTEIGER

@<TRIPOS>ATOM
      1 S           2.7288    1.7572    3.2527 S.2     1  UNL1       -0.0926
      2 O          -3.4780   -1.7041   -1.1056 O.3     1  UNL1       -0.3732
      3 O          -6.8095   -1.7965    1.6320 O.3     1  UNL1       -0.3917
      4 O           3.5916    2.2517   -0.4824 O.3     1  UNL1       -0.4941
      5 N          -0.4848    1.9970   -0.8800 N.ar    1  UNL1       -0.2593
      6 N           0.0578    1.4996    1.9681 N.4     1  UNL1        0.2308
      7 C          -3.5817   -1.0970    0.1878 C.3     1  UNL1        0.0728
      8 C          -1.1415   -0.2325   -0.0614 C.3     1  UNL1        0.0224
      9 C          -2.1927   -0.9539    0.8332 C.3     1  UNL1       -0.0123
     10 C          -4.4808   -2.0092    1.0377 C.3     1  UNL1        0.0024
     11 C          -4.4284    0.1820    0.1498 C.3     1  UNL1       -0.0213
     12 C          -5.9002   -1.7207    0.5465 C.3     1  UNL1        0.0580
     13 C          -5.8625   -0.3127   -0.0491 C.3     1  UNL1       -0.0242
     14 C          -1.1858   -0.9535   -1.4364 C.3     1  UNL1       -0.0181
     15 C           0.2670   -0.4668    0.5390 C.3     1  UNL1       -0.0013
     16 C          -2.5969   -1.0429   -2.0073 C.3     1  UNL1        0.0492
     17 C          -1.3476    1.2945   -0.1120 C.ar    1  UNL1        0.0478
     18 C           0.3478    0.0706    1.9607 C.3     1  UNL1       -0.0325
     19 C          -2.3814    1.8648    0.6132 C.ar    1  UNL1       -0.0398
     20 C          -2.5399    3.2445    0.5458 C.ar    1  UNL1       -0.0586
     21 C          -0.6699    3.3355   -0.9210 C.ar    1  UNL1        0.0279
     22 C           1.0015    2.2257    1.1302 C.3     1  UNL1        0.0021
     23 C          -1.6719    4.0012   -0.2335 C.ar    1  UNL1       -0.0436
     24 C           2.4221    2.0356    1.5912 C.ar    1  UNL1        0.0756
     25 C           3.5814    2.0517    0.8472 C.ar    1  UNL1        0.1353
     26 C           4.7364    1.8324    1.6517 C.ar    1  UNL1       -0.0124
     27 C           4.4162    1.6571    2.9801 C.ar    1  UNL1       -0.0203
     28 C           4.6360    1.6265   -1.2416 C.3     1  UNL1        0.0788
     29 H          -6.8125   -2.6984    1.9889 H       1  UNL1        0.2098
     30 H           0.1231    1.8486    2.9244 H       1  UNL1        0.2017
     31 H          -0.8826    1.6432    1.5999 H       1  UNL1        0.2017
     32 H          -1.8254   -1.9333    1.0585 H       1  UNL1        0.0302
     33 H          -2.3210   -0.3471    1.7051 H       1  UNL1        0.0302
     34 H          -4.3853   -1.7715    2.0766 H       1  UNL1        0.0318
     35 H          -4.2197   -3.0421    0.9381 H       1  UNL1        0.0318
     36 H          -4.1288    0.8097   -0.6633 H       1  UNL1        0.0294
     37 H          -4.3200    0.7679    1.0386 H       1  UNL1        0.0294
     38 H          -6.2264   -2.4315   -0.1837 H       1  UNL1        0.0594
     39 H          -6.1063   -0.3414   -1.0906 H       1  UNL1        0.0291
     40 H          -6.5727    0.3346    0.4216 H       1  UNL1        0.0291
     41 H          -0.8016   -1.9448   -1.3159 H       1  UNL1        0.0296
     42 H          -0.5952   -0.3814   -2.1211 H       1  UNL1        0.0296
     43 H           0.9935    0.0336   -0.0665 H       1  UNL1        0.0326
     44 H           0.4588   -1.5192    0.5600 H       1  UNL1        0.0326
     45 H          -2.9625   -0.0540   -2.1899 H       1  UNL1        0.0560
     46 H          -2.5587   -1.6058   -2.9164 H       1  UNL1        0.0560
     47 H          -0.3656   -0.4394    2.5738 H       1  UNL1        0.0814
     48 H           1.3341   -0.0908    2.3428 H       1  UNL1        0.0814
     49 H          -3.0139    1.2836    1.1854 H       1  UNL1        0.0636
     50 H          -3.2987    3.7052    1.0722 H       1  UNL1        0.0619
     51 H          -0.0252    3.8959   -1.5001 H       1  UNL1        0.0829
     52 H           0.7633    3.2684    1.1640 H       1  UNL1        0.0873
     53 H           0.9221    1.8444    0.1335 H       1  UNL1        0.0873
     54 H          -1.7708    5.0263   -0.2979 H       1  UNL1        0.0633
     55 H           5.6999    1.8078    1.2827 H       1  UNL1        0.0659
     56 H           5.1114    1.4856    3.7232 H       1  UNL1        0.0694
     57 H           4.5195    1.8706   -2.2769 H       1  UNL1        0.0660
     58 H           4.5810    0.5652   -1.1170 H       1  UNL1        0.0660
     59 H           5.5863    1.9772   -0.8971 H       1  UNL1        0.0660
@<TRIPOS>UNITY_ATOM_ATTR
6 1
charge 1
@<TRIPOS>BOND
     1     1    24   ar
     2     1    27   ar
     3     2    16    1
     4     3    12    1
     5     3    29    1
     6     4    25    1
     7     4    28    1
     8     5    17   ar
     9     5    21   ar
    10     6    18    1
    11     6    22    1
    12     6    30    1
    13     6    31    1
    14     7     2    1
    15     7     9    1
    16     7    10    1
    17     7    11    1
    18     8     9    1
    19     8    14    1
    20     8    15    1
    21     8    17    1
    22     9    32    1
    23     9    33    1
    24    10    12    1
    25    10    34    1
    26    10    35    1
    27    11    13    1
    28    11    36    1
    29    11    37    1
    30    12    13    1
    31    12    38    1
    32    13    39    1
    33    13    40    1
    34    14    16    1
    35    14    41    1
    36    14    42    1
    37    15    18    1
    38    15    43    1
    39    15    44    1
    40    16    45    1
    41    16    46    1
    42    17    19   ar
    43    18    47    1
    44    18    48    1
    45    19    20   ar
    46    19    49    1
    47    20    23   ar
    48    20    50    1
    49    21    23   ar
    50    21    51    1
    51    22    24    1
    52    22    52    1
    53    22    53    1
    54    23    54    1
    55    24    25   ar
    56    25    26   ar
    57    26    27   ar
    58    26    55    1
    59    27    56    1
    60    28    57    1
    61    28    58    1
    62    28    59    1
@<TRIPOS>MOLECULE
154925832
 59 62 0 0 0
SMALL
GASTEIGER

@<TRIPOS>ATOM
      1 S           1.6009   -3.8388    0.6431 S.2     1  UNL1       -0.0926
      2 O          -3.4780   -1.7041   -1.1056 O.3     1  UNL1       -0.3732
      3 O          -6.8095   -1.7965    1.6320 O.3     1  UNL1       -0.3917
      4 O           1.3031   -0.5903    2.7165 O.3     1  UNL1       -0.4941
      5 N          -0.9732    1.9188   -1.2513 N.ar    1  UNL1       -0.2593
      6 N           2.6511   -0.0149    0.2847 N.4     1  UNL1        0.2308
      7 C          -3.5817   -1.0970    0.1878 C.3     1  UNL1        0.0728
      8 C          -1.1415   -0.2325   -0.0614 C.3     1  UNL1        0.0224
      9 C          -2.1927   -0.9539    0.8332 C.3     1  UNL1       -0.0123
     10 C          -4.4808   -2.0092    1.0377 C.3     1  UNL1        0.0024
     11 C          -4.4284    0.1820    0.1498 C.3     1  UNL1       -0.0213
     12 C          -5.9002   -1.7207    0.5465 C.3     1  UNL1        0.0580
     13 C          -5.8625   -0.3127   -0.0491 C.3     1  UNL1       -0.0242
     14 C          -1.1858   -0.9535   -1.4364 C.3     1  UNL1       -0.0181
     15 C           0.2670   -0.4668    0.5390 C.3     1  UNL1       -0.0013
     16 C          -2.5969   -1.0429   -2.0073 C.3     1  UNL1        0.0492
     17 C          -1.3476    1.2945   -0.1120 C.ar    1  UNL1        0.0478
     18 C           1.3342    0.2337   -0.2898 C.3     1  UNL1       -0.0325
     19 C          -1.8934    1.9429    0.9841 C.ar    1  UNL1       -0.0398
     20 C          -2.0661    3.3204    0.9060 C.ar    1  UNL1       -0.0586
     21 C          -1.1561    3.2576   -1.2905 C.ar    1  UNL1        0.0279
     22 C           2.9533   -1.4392    0.2945 C.3     1  UNL1        0.0021
     23 C          -1.6928    3.9978   -0.2495 C.ar    1  UNL1       -0.0436
     24 C           1.9422   -2.2214    1.0899 C.ar    1  UNL1        0.0756
     25 C           1.2046   -1.8203    2.1821 C.ar    1  UNL1        0.1353
     26 C           0.3483   -2.8543    2.6583 C.ar    1  UNL1       -0.0124
     27 C           0.4637   -4.0066    1.9121 C.ar    1  UNL1       -0.0203
     28 C           0.1360   -0.0424    3.3454 C.3     1  UNL1        0.0788
     29 H          -6.8125   -2.6984    1.9889 H       1  UNL1        0.2098
     30 H           2.6698    0.3370    1.2420 H       1  UNL1        0.2017
     31 H           3.3503    0.4627   -0.2841 H       1  UNL1        0.2017
     32 H          -1.8254   -1.9333    1.0585 H       1  UNL1        0.0302
     33 H          -2.3210   -0.3471    1.7051 H       1  UNL1        0.0302
     34 H          -4.3853   -1.7715    2.0766 H       1  UNL1        0.0318
     35 H          -4.2197   -3.0421    0.9381 H       1  UNL1        0.0318
     36 H          -4.1288    0.8097   -0.6633 H       1  UNL1        0.0294
     37 H          -4.3200    0.7679    1.0386 H       1  UNL1        0.0294
     38 H          -6.2264   -2.4315   -0.1837 H       1  UNL1        0.0594
     39 H          -6.1063   -0.3414   -1.0906 H       1  UNL1        0.0291
     40 H          -6.5727    0.3346    0.4216 H       1  UNL1        0.0291
     41 H          -0.8016   -1.9448   -1.3159 H       1  UNL1        0.0296
     42 H          -0.5952   -0.3814   -2.1211 H       1  UNL1        0.0296
     43 H           0.4702   -1.5172    0.5562 H       1  UNL1        0.0326
     44 H           0.2867   -0.0660    1.5309 H       1  UNL1        0.0326
     45 H          -2.9625   -0.0540   -2.1899 H       1  UNL1        0.0560
     46 H          -2.5587   -1.6058   -2.9164 H       1  UNL1        0.0560
     47 H           1.3078   -0.1407   -1.2918 H       1  UNL1        0.0814
     48 H           1.1438    1.2866   -0.2920 H       1  UNL1        0.0814
     49 H          -2.1633    1.4199    1.8319 H       1  UNL1        0.0636
     50 H          -2.4697    3.8380    1.7025 H       1  UNL1        0.0619
     51 H          -0.8790    3.7592   -2.1488 H       1  UNL1        0.0829
     52 H           3.9213   -1.5847    0.7269 H       1  UNL1        0.0873
     53 H           2.9256   -1.7914   -0.7155 H       1  UNL1        0.0873
     54 H          -1.8117    5.0198   -0.3292 H       1  UNL1        0.0633
     55 H          -0.2842   -2.7523    3.4673 H       1  UNL1        0.0659
     56 H          -0.0720   -4.8692    2.0962 H       1  UNL1        0.0694
     57 H           0.3593    0.9338    3.7227 H       1  UNL1        0.0660
     58 H          -0.1650   -0.6766    4.1528 H       1  UNL1        0.0660
     59 H          -0.6566    0.0245    2.6298 H       1  UNL1        0.0660
@<TRIPOS>UNITY_ATOM_ATTR
6 1
charge 1
@<TRIPOS>BOND
     1     1    24   ar
     2     1    27   ar
     3     2    16    1
     4     3    12    1
     5     3    29    1
     6     4    25    1
     7     4    28    1
     8     5    17   ar
     9     5    21   ar
    10     6    18    1
    11     6    22    1
    12     6    30    1
    13     6    31    1
    14     7     2    1
    15     7     9    1
    16     7    10    1
    17     7    11    1
    18     8     9    1
    19     8    14    1
    20     8    15    1
    21     8    17    1
    22     9    32    1
    23     9    33    1
    24    10    12    1
    25    10    34    1
    26    10    35    1
    27    11    13    1
    28    11    36    1
    29    11    37    1
    30    12    13    1
    31    12    38    1
    32    13    39    1
    33    13    40    1
    34    14    16    1
    35    14    41    1
    36    14    42    1
    37    15    18    1
    38    15    43    1
    39    15    44    1
    40    16    45    1
    41    16    46    1
    42    17    19   ar
    43    18    47    1
    44    18    48    1
    45    19    20   ar
    46    19    49    1
    47    20    23   ar
    48    20    50    1
    49    21    23   ar
    50    21    51    1
    51    22    24    1
    52    22    52    1
    53    22    53    1
    54    23    54    1
    55    24    25   ar
    56    25    26   ar
    57    26    27   ar
    58    26    55    1
    59    27    56    1
    60    28    57    1
    61    28    58    1
    62    28    59    1
@<TRIPOS>MOLECULE
154925832
 59 62 0 0 0
SMALL
GASTEIGER

@<TRIPOS>ATOM
      1 S           3.8361    0.6695    0.2269 S.2     1  UNL1       -0.0926
      2 O          -3.4780   -1.7041   -1.1056 O.3     1  UNL1       -0.3732
      3 O          -6.8095   -1.7965    1.6320 O.3     1  UNL1       -0.3917
      4 O           4.5370    4.1731   -1.2476 O.3     1  UNL1       -0.4941
      5 N          -2.1487    1.7653   -1.0941 N.ar    1  UNL1       -0.2593
      6 N           1.0858    1.6705   -0.3064 N.4     1  UNL1        0.2308
      7 C          -3.5817   -1.0970    0.1878 C.3     1  UNL1        0.0728
      8 C          -1.1415   -0.2325   -0.0614 C.3     1  UNL1        0.0224
      9 C          -2.1927   -0.9539    0.8332 C.3     1  UNL1       -0.0123
     10 C          -4.4808   -2.0092    1.0377 C.3     1  UNL1        0.0024
     11 C          -4.4284    0.1820    0.1498 C.3     1  UNL1       -0.0213
     12 C          -5.9002   -1.7207    0.5465 C.3     1  UNL1        0.0580
     13 C          -5.8625   -0.3127   -0.0491 C.3     1  UNL1       -0.0242
     14 C          -1.1858   -0.9535   -1.4364 C.3     1  UNL1       -0.0181
     15 C           0.2670   -0.4668    0.5390 C.3     1  UNL1       -0.0013
     16 C          -2.5969   -1.0429   -2.0073 C.3     1  UNL1        0.0492
     17 C          -1.3476    1.2945   -0.1120 C.ar    1  UNL1        0.0478
     18 C           1.3342    0.2337   -0.2898 C.3     1  UNL1       -0.0325
     19 C          -0.7189    2.0962    0.8271 C.ar    1  UNL1       -0.0398
     20 C          -0.9257    3.4693    0.7536 C.ar    1  UNL1       -0.0586
     21 C          -2.3261    3.1049   -1.1339 C.ar    1  UNL1        0.0279
     22 C           2.0858    2.3615   -1.1080 C.3     1  UNL1        0.0021
     23 C          -1.7431    3.9912   -0.2427 C.ar    1  UNL1       -0.0436
     24 C           3.4789    2.1349   -0.5837 C.ar    1  UNL1        0.0756
     25 C           4.5748    2.9666   -0.6552 C.ar    1  UNL1        0.1353
     26 C           5.7228    2.3930   -0.0367 C.ar    1  UNL1       -0.0124
     27 C           5.4608    1.1449    0.4843 C.ar    1  UNL1       -0.0203
     28 C           5.7436    4.6535   -1.8568 C.3     1  UNL1        0.0788
     29 H          -6.8125   -2.6984    1.9889 H       1  UNL1        0.2098
     30 H           1.1196    2.0263    0.6490 H       1  UNL1        0.2017
     31 H           0.1670    1.8376   -0.7166 H       1  UNL1        0.2017
     32 H          -1.8254   -1.9333    1.0585 H       1  UNL1        0.0302
     33 H          -2.3210   -0.3471    1.7051 H       1  UNL1        0.0302
     34 H          -4.3853   -1.7715    2.0766 H       1  UNL1        0.0318
     35 H          -4.2197   -3.0421    0.9381 H       1  UNL1        0.0318
     36 H          -4.1288    0.8097   -0.6633 H       1  UNL1        0.0294
     37 H          -4.3200    0.7679    1.0386 H       1  UNL1        0.0294
     38 H          -6.2264   -2.4315   -0.1837 H       1  UNL1        0.0594
     39 H          -6.1063   -0.3414   -1.0906 H       1  UNL1        0.0291
     40 H          -6.5727    0.3346    0.4216 H       1  UNL1        0.0291
     41 H          -0.8016   -1.9448   -1.3159 H       1  UNL1        0.0296
     42 H          -0.5952   -0.3814   -2.1211 H       1  UNL1        0.0296
     43 H           0.4702   -1.5172    0.5562 H       1  UNL1        0.0326
     44 H           0.2867   -0.0660    1.5309 H       1  UNL1        0.0326
     45 H          -2.9625   -0.0540   -2.1899 H       1  UNL1        0.0560
     46 H          -2.5587   -1.6058   -2.9164 H       1  UNL1        0.0560
     47 H           2.2966    0.0449    0.1383 H       1  UNL1        0.0814
     48 H           1.3043   -0.1406   -1.2917 H       1  UNL1        0.0814
     49 H          -0.1162    1.6871    1.5581 H       1  UNL1        0.0636
     50 H          -0.4743    4.0985    1.4358 H       1  UNL1        0.0619
     51 H          -2.9333    3.4911   -1.8737 H       1  UNL1        0.0829
     52 H           1.8768    3.4108   -1.0929 H       1  UNL1        0.0873
     53 H           2.0388    1.9734   -2.1041 H       1  UNL1        0.0873
     54 H          -1.9103    5.0069   -0.3162 H       1  UNL1        0.0633
     55 H           6.6427    2.8579    0.0151 H       1  UNL1        0.0659
     56 H           6.1612    0.5648    0.9721 H       1  UNL1        0.0694
     57 H           5.5671    5.6179   -2.2856 H       1  UNL1        0.0660
     58 H           6.0514    3.9734   -2.6232 H       1  UNL1        0.0660
     59 H           6.5122    4.7278   -1.1161 H       1  UNL1        0.0660
@<TRIPOS>UNITY_ATOM_ATTR
6 1
charge 1
@<TRIPOS>BOND
     1     1    24   ar
     2     1    27   ar
     3     2    16    1
     4     3    12    1
     5     3    29    1
     6     4    25    1
     7     4    28    1
     8     5    17   ar
     9     5    21   ar
    10     6    18    1
    11     6    22    1
    12     6    30    1
    13     6    31    1
    14     7     2    1
    15     7     9    1
    16     7    10    1
    17     7    11    1
    18     8     9    1
    19     8    14    1
    20     8    15    1
    21     8    17    1
    22     9    32    1
    23     9    33    1
    24    10    12    1
    25    10    34    1
    26    10    35    1
    27    11    13    1
    28    11    36    1
    29    11    37    1
    30    12    13    1
    31    12    38    1
    32    13    39    1
    33    13    40    1
    34    14    16    1
    35    14    41    1
    36    14    42    1
    37    15    18    1
    38    15    43    1
    39    15    44    1
    40    16    45    1
    41    16    46    1
    42    17    19   ar
    43    18    47    1
    44    18    48    1
    45    19    20   ar
    46    19    49    1
    47    20    23   ar
    48    20    50    1
    49    21    23   ar
    50    21    51    1
    51    22    24    1
    52    22    52    1
    53    22    53    1
    54    23    54    1
    55    24    25   ar
    56    25    26   ar
    57    26    27   ar
    58    26    55    1
    59    27    56    1
    60    28    57    1
    61    28    58    1
    62    28    59    1
@<TRIPOS>MOLECULE
154925832
 59 62 0 0 0
SMALL
GASTEIGER

@<TRIPOS>ATOM
      1 S           2.5734    1.1127    3.1377 S.2     1  UNL1       -0.0926
      2 O          -3.4780   -1.7041   -1.1056 O.3     1  UNL1       -0.3732
      3 O          -6.8095   -1.7965    1.6320 O.3     1  UNL1       -0.3917
      4 O           3.8831    3.1954    0.1566 O.3     1  UNL1       -0.4941
      5 N          -0.6967    2.0248    0.8212 N.ar    1  UNL1       -0.2593
      6 N           1.0858    1.6705   -0.3064 N.4     1  UNL1        0.2308
      7 C          -3.5817   -1.0970    0.1878 C.3     1  UNL1        0.0728
      8 C          -1.1415   -0.2325   -0.0614 C.3     1  UNL1        0.0224
      9 C          -2.1927   -0.9539    0.8332 C.3     1  UNL1       -0.0123
     10 C          -4.4808   -2.0092    1.0377 C.3     1  UNL1        0.0024
     11 C          -4.4284    0.1820    0.1498 C.3     1  UNL1       -0.0213
     12 C          -5.9002   -1.7207    0.5465 C.3     1  UNL1        0.0580
     13 C          -5.8625   -0.3127   -0.0491 C.3     1  UNL1       -0.0242
     14 C          -1.1858   -0.9535   -1.4364 C.3     1  UNL1       -0.0181
     15 C           0.2670   -0.4668    0.5390 C.3     1  UNL1       -0.0013
     16 C          -2.5969   -1.0429   -2.0073 C.3     1  UNL1        0.0492
     17 C          -1.3476    1.2945   -0.1120 C.ar    1  UNL1        0.0478
     18 C           1.3342    0.2337   -0.2898 C.3     1  UNL1       -0.0325
     19 C          -2.1696    1.8370   -1.0866 C.ar    1  UNL1       -0.0398
     20 C          -2.3341    3.2176   -1.1046 C.ar    1  UNL1       -0.0586
     21 C          -0.8807    3.3631    0.7724 C.ar    1  UNL1        0.0279
     22 C           1.1302    2.2211    1.0408 C.3     1  UNL1        0.0021
     23 C          -1.6810    4.0023   -0.1607 C.ar    1  UNL1       -0.0436
     24 C           2.4749    2.0159    1.6862 C.ar    1  UNL1        0.0756
     25 C           3.7096    2.4652    1.2722 C.ar    1  UNL1        0.1353
     26 C           4.7500    2.0626    2.1581 C.ar    1  UNL1       -0.0124
     27 C           4.2712    1.3209    3.2157 C.ar    1  UNL1       -0.0203
     28 C           2.8032    4.0437   -0.2583 C.3     1  UNL1        0.0788
     29 H          -6.8125   -2.6984    1.9889 H       1  UNL1        0.2098
     30 H           0.1649    1.8456   -0.7085 H       1  UNL1        0.2017
     31 H           1.8104    2.1200   -0.8662 H       1  UNL1        0.2017
     32 H          -1.8254   -1.9333    1.0585 H       1  UNL1        0.0302
     33 H          -2.3210   -0.3471    1.7051 H       1  UNL1        0.0302
     34 H          -4.3853   -1.7715    2.0766 H       1  UNL1        0.0318
     35 H          -4.2197   -3.0421    0.9381 H       1  UNL1        0.0318
     36 H          -4.1288    0.8097   -0.6633 H       1  UNL1        0.0294
     37 H          -4.3200    0.7679    1.0386 H       1  UNL1        0.0294
     38 H          -6.2264   -2.4315   -0.1837 H       1  UNL1        0.0594
     39 H          -6.1063   -0.3414   -1.0906 H       1  UNL1        0.0291
     40 H          -6.5727    0.3346    0.4216 H       1  UNL1        0.0291
     41 H          -0.8016   -1.9448   -1.3159 H       1  UNL1        0.0296
     42 H          -0.5952   -0.3814   -2.1211 H       1  UNL1        0.0296
     43 H           0.4702   -1.5172    0.5562 H       1  UNL1        0.0326
     44 H           0.2867   -0.0660    1.5309 H       1  UNL1        0.0326
     45 H          -2.9625   -0.0540   -2.1899 H       1  UNL1        0.0560
     46 H          -2.5587   -1.6058   -2.9164 H       1  UNL1        0.0560
     47 H           2.2966    0.0449    0.1383 H       1  UNL1        0.0814
     48 H           1.3043   -0.1406   -1.2917 H       1  UNL1        0.0814
     49 H          -2.6448    1.2353   -1.7775 H       1  UNL1        0.0636
     50 H          -2.9386    3.6581   -1.8157 H       1  UNL1        0.0619
     51 H          -0.3952    3.9445    1.4733 H       1  UNL1        0.0829
     52 H           0.3833    1.7392    1.6365 H       1  UNL1        0.0873
     53 H           0.9507    3.2739    0.9752 H       1  UNL1        0.0873
     54 H          -1.7889    5.0286   -0.1553 H       1  UNL1        0.0633
     55 H           5.7455    2.2988    2.0235 H       1  UNL1        0.0659
     56 H           4.8656    0.9362    3.9664 H       1  UNL1        0.0694
     57 H           3.0795    4.5606   -1.1536 H       1  UNL1        0.0660
     58 H           2.5914    4.7544    0.5130 H       1  UNL1        0.0660
     59 H           1.9334    3.4489   -0.4439 H       1  UNL1        0.0660
@<TRIPOS>UNITY_ATOM_ATTR
6 1
charge 1
@<TRIPOS>BOND
     1     1    24   ar
     2     1    27   ar
     3     2    16    1
     4     3    12    1
     5     3    29    1
     6     4    25    1
     7     4    28    1
     8     5    17   ar
     9     5    21   ar
    10     6    18    1
    11     6    22    1
    12     6    30    1
    13     6    31    1
    14     7     2    1
    15     7     9    1
    16     7    10    1
    17     7    11    1
    18     8     9    1
    19     8    14    1
    20     8    15    1
    21     8    17    1
    22     9    32    1
    23     9    33    1
    24    10    12    1
    25    10    34    1
    26    10    35    1
    27    11    13    1
    28    11    36    1
    29    11    37    1
    30    12    13    1
    31    12    38    1
    32    13    39    1
    33    13    40    1
    34    14    16    1
    35    14    41    1
    36    14    42    1
    37    15    18    1
    38    15    43    1
    39    15    44    1
    40    16    45    1
    41    16    46    1
    42    17    19   ar
    43    18    47    1
    44    18    48    1
    45    19    20   ar
    46    19    49    1
    47    20    23   ar
    48    20    50    1
    49    21    23   ar
    50    21    51    1
    51    22    24    1
    52    22    52    1
    53    22    53    1
    54    23    54    1
    55    24    25   ar
    56    25    26   ar
    57    26    27   ar
    58    26    55    1
    59    27    56    1
    60    28    57    1
    61    28    58    1
    62    28    59    1
@<TRIPOS>MOLECULE
154925832
 59 62 0 0 0
SMALL
GASTEIGER

@<TRIPOS>ATOM
      1 S           0.9563    0.6914   -3.0167 S.2     1  UNL1       -0.0926
      2 O          -3.4780   -1.7041   -1.1056 O.3     1  UNL1       -0.3732
      3 O          -6.8095   -1.7965    1.6320 O.3     1  UNL1       -0.3917
      4 O           3.8165    3.2538   -3.4571 O.3     1  UNL1       -0.4941
      5 N          -0.6967    2.0248    0.8212 N.ar    1  UNL1       -0.2593
      6 N           1.0858    1.6705   -0.3064 N.4     1  UNL1        0.2308
      7 C          -3.5817   -1.0970    0.1878 C.3     1  UNL1        0.0728
      8 C          -1.1415   -0.2325   -0.0614 C.3     1  UNL1        0.0224
      9 C          -2.1927   -0.9539    0.8332 C.3     1  UNL1       -0.0123
     10 C          -4.4808   -2.0092    1.0377 C.3     1  UNL1        0.0024
     11 C          -4.4284    0.1820    0.1498 C.3     1  UNL1       -0.0213
     12 C          -5.9002   -1.7207    0.5465 C.3     1  UNL1        0.0580
     13 C          -5.8625   -0.3127   -0.0491 C.3     1  UNL1       -0.0242
     14 C          -1.1858   -0.9535   -1.4364 C.3     1  UNL1       -0.0181
     15 C           0.2670   -0.4668    0.5390 C.3     1  UNL1       -0.0013
     16 C          -2.5969   -1.0429   -2.0073 C.3     1  UNL1        0.0492
     17 C          -1.3476    1.2945   -0.1120 C.ar    1  UNL1        0.0478
     18 C           1.3342    0.2337   -0.2898 C.3     1  UNL1       -0.0325
     19 C          -2.1696    1.8370   -1.0866 C.ar    1  UNL1       -0.0398
     20 C          -2.3341    3.2176   -1.1046 C.ar    1  UNL1       -0.0586
     21 C          -0.8807    3.3631    0.7724 C.ar    1  UNL1        0.0279
     22 C           2.0858    2.3615   -1.1080 C.3     1  UNL1        0.0021
     23 C          -1.6810    4.0023   -0.1607 C.ar    1  UNL1       -0.0436
     24 C           2.0743    1.8978   -2.5403 C.ar    1  UNL1        0.0756
     25 C           2.8656    2.3122   -3.5891 C.ar    1  UNL1        0.1353
     26 C           2.5498    1.6306   -4.7994 C.ar    1  UNL1       -0.0124
     27 C           1.5292    0.7209   -4.6300 C.ar    1  UNL1       -0.0203
     28 C           4.4581    3.3773   -2.1800 C.3     1  UNL1        0.0788
     29 H          -6.8125   -2.6984    1.9889 H       1  UNL1        0.2098
     30 H           1.1196    2.0263    0.6490 H       1  UNL1        0.2017
     31 H           0.1670    1.8376   -0.7166 H       1  UNL1        0.2017
     32 H          -1.8254   -1.9333    1.0585 H       1  UNL1        0.0302
     33 H          -2.3210   -0.3471    1.7051 H       1  UNL1        0.0302
     34 H          -4.3853   -1.7715    2.0766 H       1  UNL1        0.0318
     35 H          -4.2197   -3.0421    0.9381 H       1  UNL1        0.0318
     36 H          -4.1288    0.8097   -0.6633 H       1  UNL1        0.0294
     37 H          -4.3200    0.7679    1.0386 H       1  UNL1        0.0294
     38 H          -6.2264   -2.4315   -0.1837 H       1  UNL1        0.0594
     39 H          -6.1063   -0.3414   -1.0906 H       1  UNL1        0.0291
     40 H          -6.5727    0.3346    0.4216 H       1  UNL1        0.0291
     41 H          -0.8016   -1.9448   -1.3159 H       1  UNL1        0.0296
     42 H          -0.5952   -0.3814   -2.1211 H       1  UNL1        0.0296
     43 H           0.4702   -1.5172    0.5562 H       1  UNL1        0.0326
     44 H           0.2867   -0.0660    1.5309 H       1  UNL1        0.0326
     45 H          -2.9625   -0.0540   -2.1899 H       1  UNL1        0.0560
     46 H          -2.5587   -1.6058   -2.9164 H       1  UNL1        0.0560
     47 H           2.2966    0.0449    0.1383 H       1  UNL1        0.0814
     48 H           1.3043   -0.1406   -1.2917 H       1  UNL1        0.0814
     49 H          -2.6448    1.2353   -1.7775 H       1  UNL1        0.0636
     50 H          -2.9386    3.6581   -1.8157 H       1  UNL1        0.0619
     51 H          -0.3952    3.9445    1.4733 H       1  UNL1        0.0829
     52 H           3.0534    2.1739   -0.6913 H       1  UNL1        0.0873
     53 H           1.8569    3.4067   -1.0955 H       1  UNL1        0.0873
     54 H          -1.7889    5.0286   -0.1553 H       1  UNL1        0.0633
     55 H           3.0293    1.7985   -5.6977 H       1  UNL1        0.0659
     56 H           1.1542    0.1273   -5.3863 H       1  UNL1        0.0694
     57 H           5.1866    4.1600   -2.2211 H       1  UNL1        0.0660
     58 H           4.9395    2.4546   -1.9320 H       1  UNL1        0.0660
     59 H           3.7267    3.6097   -1.4343 H       1  UNL1        0.0660
@<TRIPOS>UNITY_ATOM_ATTR
6 1
charge 1
@<TRIPOS>BOND
     1     1    24   ar
     2     1    27   ar
     3     2    16    1
     4     3    12    1
     5     3    29    1
     6     4    25    1
     7     4    28    1
     8     5    17   ar
     9     5    21   ar
    10     6    18    1
    11     6    22    1
    12     6    30    1
    13     6    31    1
    14     7     2    1
    15     7     9    1
    16     7    10    1
    17     7    11    1
    18     8     9    1
    19     8    14    1
    20     8    15    1
    21     8    17    1
    22     9    32    1
    23     9    33    1
    24    10    12    1
    25    10    34    1
    26    10    35    1
    27    11    13    1
    28    11    36    1
    29    11    37    1
    30    12    13    1
    31    12    38    1
    32    13    39    1
    33    13    40    1
    34    14    16    1
    35    14    41    1
    36    14    42    1
    37    15    18    1
    38    15    43    1
    39    15    44    1
    40    16    45    1
    41    16    46    1
    42    17    19   ar
    43    18    47    1
    44    18    48    1
    45    19    20   ar
    46    19    49    1
    47    20    23   ar
    48    20    50    1
    49    21    23   ar
    50    21    51    1
    51    22    24    1
    52    22    52    1
    53    22    53    1
    54    23    54    1
    55    24    25   ar
    56    25    26   ar
    57    26    27   ar
    58    26    55    1
    59    27    56    1
    60    28    57    1
    61    28    58    1
    62    28    59    1
@<TRIPOS>MOLECULE
154925832
 59 62 0 0 0
SMALL
GASTEIGER

@<TRIPOS>ATOM
      1 S           2.4585    0.7994   -1.1658 S.2     1  UNL1       -0.0926
      2 O          -3.4780   -1.7041   -1.1056 O.3     1  UNL1       -0.3732
      3 O          -6.8095   -1.7965    1.6320 O.3     1  UNL1       -0.3917
      4 O           2.7806    0.5596    2.6786 O.3     1  UNL1       -0.4941
      5 N          -1.8975    1.8680    0.9819 N.ar    1  UNL1       -0.2593
      6 N           1.9227   -2.1473    1.1614 N.4     1  UNL1        0.2308
      7 C          -3.5817   -1.0970    0.1878 C.3     1  UNL1        0.0728
      8 C          -1.1415   -0.2325   -0.0614 C.3     1  UNL1        0.0224
      9 C          -2.1927   -0.9539    0.8332 C.3     1  UNL1       -0.0123
     10 C          -4.4808   -2.0092    1.0377 C.3     1  UNL1        0.0024
     11 C          -4.4284    0.1820    0.1498 C.3     1  UNL1       -0.0213
     12 C          -5.9002   -1.7207    0.5465 C.3     1  UNL1        0.0580
     13 C          -5.8625   -0.3127   -0.0491 C.3     1  UNL1       -0.0242
     14 C          -1.1858   -0.9535   -1.4364 C.3     1  UNL1       -0.0181
     15 C           0.2670   -0.4668    0.5390 C.3     1  UNL1       -0.0013
     16 C          -2.5969   -1.0429   -2.0073 C.3     1  UNL1        0.0492
     17 C          -1.3476    1.2945   -0.1120 C.ar    1  UNL1        0.0478
     18 C           0.6009   -1.9512    0.5778 C.3     1  UNL1       -0.0325
     19 C          -0.9698    1.9936   -1.2471 C.ar    1  UNL1       -0.0398
     20 C          -1.1692    3.3697   -1.2603 C.ar    1  UNL1       -0.0586
     21 C          -2.0760    3.2071    0.9324 C.ar    1  UNL1        0.0279
     22 C           2.9408   -1.4501    0.3884 C.3     1  UNL1        0.0021
     23 C          -1.7324    3.9956   -0.1539 C.ar    1  UNL1       -0.0436
     24 C           2.6950    0.0347    0.3480 C.ar    1  UNL1        0.0756
     25 C           2.6271    0.9280    1.3945 C.ar    1  UNL1        0.1353
     26 C           2.3773    2.2574    0.9477 C.ar    1  UNL1       -0.0124
     27 C           2.2640    2.3300   -0.4233 C.ar    1  UNL1       -0.0203
     28 C           3.6230   -0.5691    2.9510 C.3     1  UNL1        0.0788
     29 H          -6.8125   -2.6984    1.9889 H       1  UNL1        0.2098
     30 H           2.1376   -3.1444    1.1741 H       1  UNL1        0.2017
     31 H           1.9192   -1.7714    2.1097 H       1  UNL1        0.2017
     32 H          -1.8254   -1.9333    1.0585 H       1  UNL1        0.0302
     33 H          -2.3210   -0.3471    1.7051 H       1  UNL1        0.0302
     34 H          -4.3853   -1.7715    2.0766 H       1  UNL1        0.0318
     35 H          -4.2197   -3.0421    0.9381 H       1  UNL1        0.0318
     36 H          -4.1288    0.8097   -0.6633 H       1  UNL1        0.0294
     37 H          -4.3200    0.7679    1.0386 H       1  UNL1        0.0294
     38 H          -6.2264   -2.4315   -0.1837 H       1  UNL1        0.0594
     39 H          -6.1063   -0.3414   -1.0906 H       1  UNL1        0.0291
     40 H          -6.5727    0.3346    0.4216 H       1  UNL1        0.0291
     41 H          -0.8016   -1.9448   -1.3159 H       1  UNL1        0.0296
     42 H          -0.5952   -0.3814   -2.1211 H       1  UNL1        0.0296
     43 H           0.2928   -0.0758    1.5346 H       1  UNL1        0.0326
     44 H           0.9878    0.0297   -0.0764 H       1  UNL1        0.0326
     45 H          -2.9625   -0.0540   -2.1899 H       1  UNL1        0.0560
     46 H          -2.5587   -1.6058   -2.9164 H       1  UNL1        0.0560
     47 H          -0.1281   -2.4635    1.1702 H       1  UNL1        0.0814
     48 H           0.5947   -2.3399   -0.4191 H       1  UNL1        0.0814
     49 H          -0.5535    1.5083   -2.0572 H       1  UNL1        0.0636
     50 H          -0.9002    3.9242   -2.0881 H       1  UNL1        0.0619
     51 H          -2.4939    3.6706    1.7543 H       1  UNL1        0.0829
     52 H           2.9355   -1.8291   -0.6123 H       1  UNL1        0.0873
     53 H           3.8872   -1.6173    0.8587 H       1  UNL1        0.0873
     54 H          -1.8897    5.0155   -0.1421 H       1  UNL1        0.0633
     55 H           2.2914    3.0707    1.5772 H       1  UNL1        0.0659
     56 H           2.0832    3.2038   -0.9417 H       1  UNL1        0.0694
     57 H           3.6522   -0.7460    4.0059 H       1  UNL1        0.0660
     58 H           4.6122   -0.3699    2.5953 H       1  UNL1        0.0660
     59 H           3.2330   -1.4333    2.4551 H       1  UNL1        0.0660
@<TRIPOS>UNITY_ATOM_ATTR
6 1
charge 1
@<TRIPOS>BOND
     1     1    24   ar
     2     1    27   ar
     3     2    16    1
     4     3    12    1
     5     3    29    1
     6     4    25    1
     7     4    28    1
     8     5    17   ar
     9     5    21   ar
    10     6    18    1
    11     6    22    1
    12     6    30    1
    13     6    31    1
    14     7     2    1
    15     7     9    1
    16     7    10    1
    17     7    11    1
    18     8     9    1
    19     8    14    1
    20     8    15    1
    21     8    17    1
    22     9    32    1
    23     9    33    1
    24    10    12    1
    25    10    34    1
    26    10    35    1
    27    11    13    1
    28    11    36    1
    29    11    37    1
    30    12    13    1
    31    12    38    1
    32    13    39    1
    33    13    40    1
    34    14    16    1
    35    14    41    1
    36    14    42    1
    37    15    18    1
    38    15    43    1
    39    15    44    1
    40    16    45    1
    41    16    46    1
    42    17    19   ar
    43    18    47    1
    44    18    48    1
    45    19    20   ar
    46    19    49    1
    47    20    23   ar
    48    20    50    1
    49    21    23   ar
    50    21    51    1
    51    22    24    1
    52    22    52    1
    53    22    53    1
    54    23    54    1
    55    24    25   ar
    56    25    26   ar
    57    26    27   ar
    58    26    55    1
    59    27    56    1
    60    28    57    1
    61    28    58    1
    62    28    59    1
@<TRIPOS>MOLECULE
154925832
 59 62 0 0 0
SMALL
GASTEIGER

@<TRIPOS>ATOM
      1 S           1.3757   -2.6067    4.9956 S.2     1  UNL1       -0.0926
      2 O          -3.4780   -1.7041   -1.1056 O.3     1  UNL1       -0.3732
      3 O          -6.8095   -1.7965    1.6320 O.3     1  UNL1       -0.3917
      4 O          -0.5901   -2.9128    1.6817 O.3     1  UNL1       -0.4941
      5 N          -0.6967    2.0248    0.8212 N.ar    1  UNL1       -0.2593
      6 N           1.6860   -0.1462    2.4978 N.4     1  UNL1        0.2308
      7 C          -3.5817   -1.0970    0.1878 C.3     1  UNL1        0.0728
      8 C          -1.1415   -0.2325   -0.0614 C.3     1  UNL1        0.0224
      9 C          -2.1927   -0.9539    0.8332 C.3     1  UNL1       -0.0123
     10 C          -4.4808   -2.0092    1.0377 C.3     1  UNL1        0.0024
     11 C          -4.4284    0.1820    0.1498 C.3     1  UNL1       -0.0213
     12 C          -5.9002   -1.7207    0.5465 C.3     1  UNL1        0.0580
     13 C          -5.8625   -0.3127   -0.0491 C.3     1  UNL1       -0.0242
     14 C          -1.1858   -0.9535   -1.4364 C.3     1  UNL1       -0.0181
     15 C           0.2670   -0.4668    0.5390 C.3     1  UNL1       -0.0013
     16 C          -2.5969   -1.0429   -2.0073 C.3     1  UNL1        0.0492
     17 C          -1.3476    1.2945   -0.1120 C.ar    1  UNL1        0.0478
     18 C           0.3478    0.0706    1.9607 C.3     1  UNL1       -0.0325
     19 C          -2.1696    1.8370   -1.0866 C.ar    1  UNL1       -0.0398
     20 C          -2.3341    3.2176   -1.1046 C.ar    1  UNL1       -0.0586
     21 C          -0.8807    3.3631    0.7724 C.ar    1  UNL1        0.0279
     22 C           2.0198   -1.5635    2.5046 C.3     1  UNL1        0.0021
     23 C          -1.6810    4.0023   -0.1607 C.ar    1  UNL1       -0.0436
     24 C           1.0497   -2.3639    3.3322 C.ar    1  UNL1        0.0756
     25 C          -0.1255   -2.9678    2.9423 C.ar    1  UNL1        0.1353
     26 C          -0.7667   -3.6383    4.0233 C.ar    1  UNL1       -0.0124
     27 C          -0.0573   -3.5216    5.1985 C.ar    1  UNL1       -0.0203
     28 C          -1.8356   -3.5675    1.4021 C.3     1  UNL1        0.0788
     29 H          -6.8125   -2.6984    1.9889 H       1  UNL1        0.2098
     30 H           1.7245    0.2105    3.4526 H       1  UNL1        0.2017
     31 H           2.3576    0.3440    1.9069 H       1  UNL1        0.2017
     32 H          -1.8254   -1.9333    1.0585 H       1  UNL1        0.0302
     33 H          -2.3210   -0.3471    1.7051 H       1  UNL1        0.0302
     34 H          -4.3853   -1.7715    2.0766 H       1  UNL1        0.0318
     35 H          -4.2197   -3.0421    0.9381 H       1  UNL1        0.0318
     36 H          -4.1288    0.8097   -0.6633 H       1  UNL1        0.0294
     37 H          -4.3200    0.7679    1.0386 H       1  UNL1        0.0294
     38 H          -6.2264   -2.4315   -0.1837 H       1  UNL1        0.0594
     39 H          -6.1063   -0.3414   -1.0906 H       1  UNL1        0.0291
     40 H          -6.5727    0.3346    0.4216 H       1  UNL1        0.0291
     41 H          -0.8016   -1.9448   -1.3159 H       1  UNL1        0.0296
     42 H          -0.5952   -0.3814   -2.1211 H       1  UNL1        0.0296
     43 H           0.9935    0.0336   -0.0665 H       1  UNL1        0.0326
     44 H           0.4588   -1.5192    0.5600 H       1  UNL1        0.0326
     45 H          -2.9625   -0.0540   -2.1899 H       1  UNL1        0.0560
     46 H          -2.5587   -1.6058   -2.9164 H       1  UNL1        0.0560
     47 H           0.1326    1.1188    1.9565 H       1  UNL1        0.0814
     48 H          -0.3647   -0.4424    2.5723 H       1  UNL1        0.0814
     49 H          -2.6448    1.2353   -1.7775 H       1  UNL1        0.0636
     50 H          -2.9386    3.6581   -1.8157 H       1  UNL1        0.0619
     51 H          -0.3952    3.9445    1.4733 H       1  UNL1        0.0829
     52 H           3.0028   -1.6855    2.9093 H       1  UNL1        0.0873
     53 H           1.9707   -1.9209    1.4972 H       1  UNL1        0.0873
     54 H          -1.7889    5.0286   -0.1553 H       1  UNL1        0.0633
     55 H          -1.6580   -4.1512    3.9364 H       1  UNL1        0.0659
     56 H          -0.3545   -3.9367    6.0953 H       1  UNL1        0.0694
     57 H          -2.0799   -3.4425    0.3679 H       1  UNL1        0.0660
     58 H          -2.6076   -3.1377    2.0055 H       1  UNL1        0.0660
     59 H          -1.7481   -4.6105    1.6245 H       1  UNL1        0.0660
@<TRIPOS>UNITY_ATOM_ATTR
6 1
charge 1
@<TRIPOS>BOND
     1     1    24   ar
     2     1    27   ar
     3     2    16    1
     4     3    12    1
     5     3    29    1
     6     4    25    1
     7     4    28    1
     8     5    17   ar
     9     5    21   ar
    10     6    18    1
    11     6    22    1
    12     6    30    1
    13     6    31    1
    14     7     2    1
    15     7     9    1
    16     7    10    1
    17     7    11    1
    18     8     9    1
    19     8    14    1
    20     8    15    1
    21     8    17    1
    22     9    32    1
    23     9    33    1
    24    10    12    1
    25    10    34    1
    26    10    35    1
    27    11    13    1
    28    11    36    1
    29    11    37    1
    30    12    13    1
    31    12    38    1
    32    13    39    1
    33    13    40    1
    34    14    16    1
    35    14    41    1
    36    14    42    1
    37    15    18    1
    38    15    43    1
    39    15    44    1
    40    16    45    1
    41    16    46    1
    42    17    19   ar
    43    18    47    1
    44    18    48    1
    45    19    20   ar
    46    19    49    1
    47    20    23   ar
    48    20    50    1
    49    21    23   ar
    50    21    51    1
    51    22    24    1
    52    22    52    1
    53    22    53    1
    54    23    54    1
    55    24    25   ar
    56    25    26   ar
    57    26    27   ar
    58    26    55    1
    59    27    56    1
    60    28    57    1
    61    28    58    1
    62    28    59    1
@<TRIPOS>MOLECULE
154925832
 59 62 0 0 0
SMALL
GASTEIGER

@<TRIPOS>ATOM
      1 S           0.5251    0.7195    3.3387 S.2     1  UNL1       -0.0926
      2 O          -3.4780   -1.7041   -1.1056 O.3     1  UNL1       -0.3732
      3 O          -6.8095   -1.7965    1.6320 O.3     1  UNL1       -0.3917
      4 O           2.4224   -2.4927    2.3276 O.3     1  UNL1       -0.4941
      5 N          -0.9732    1.9188   -1.2513 N.ar    1  UNL1       -0.2593
      6 N           2.6511   -0.0149    0.2847 N.4     1  UNL1        0.2308
      7 C          -3.5817   -1.0970    0.1878 C.3     1  UNL1        0.0728
      8 C          -1.1415   -0.2325   -0.0614 C.3     1  UNL1        0.0224
      9 C          -2.1927   -0.9539    0.8332 C.3     1  UNL1       -0.0123
     10 C          -4.4808   -2.0092    1.0377 C.3     1  UNL1        0.0024
     11 C          -4.4284    0.1820    0.1498 C.3     1  UNL1       -0.0213
     12 C          -5.9002   -1.7207    0.5465 C.3     1  UNL1        0.0580
     13 C          -5.8625   -0.3127   -0.0491 C.3     1  UNL1       -0.0242
     14 C          -1.1858   -0.9535   -1.4364 C.3     1  UNL1       -0.0181
     15 C           0.2670   -0.4668    0.5390 C.3     1  UNL1       -0.0013
     16 C          -2.5969   -1.0429   -2.0073 C.3     1  UNL1        0.0492
     17 C          -1.3476    1.2945   -0.1120 C.ar    1  UNL1        0.0478
     18 C           1.3342    0.2337   -0.2898 C.3     1  UNL1       -0.0325
     19 C          -1.8934    1.9429    0.9841 C.ar    1  UNL1       -0.0398
     20 C          -2.0661    3.3204    0.9060 C.ar    1  UNL1       -0.0586
     21 C          -1.1561    3.2576   -1.2905 C.ar    1  UNL1        0.0279
     22 C           2.7195    0.4689    1.6564 C.3     1  UNL1        0.0021
     23 C          -1.6928    3.9978   -0.2495 C.ar    1  UNL1       -0.0436
     24 C           1.7167   -0.2190    2.5441 C.ar    1  UNL1        0.0756
     25 C           1.5984   -1.5600    2.8367 C.ar    1  UNL1        0.1353
     26 C           0.5153   -1.8202    3.7247 C.ar    1  UNL1       -0.0124
     27 C          -0.1532   -0.6684    4.0772 C.ar    1  UNL1       -0.0203
     28 C           3.7662   -2.0966    2.0190 C.3     1  UNL1        0.0788
     29 H          -6.8125   -2.6984    1.9889 H       1  UNL1        0.2098
     30 H           3.3557    0.4660   -0.2745 H       1  UNL1        0.2017
     31 H           2.8220   -1.0206    0.2850 H       1  UNL1        0.2017
     32 H          -1.8254   -1.9333    1.0585 H       1  UNL1        0.0302
     33 H          -2.3210   -0.3471    1.7051 H       1  UNL1        0.0302
     34 H          -4.3853   -1.7715    2.0766 H       1  UNL1        0.0318
     35 H          -4.2197   -3.0421    0.9381 H       1  UNL1        0.0318
     36 H          -4.1288    0.8097   -0.6633 H       1  UNL1        0.0294
     37 H          -4.3200    0.7679    1.0386 H       1  UNL1        0.0294
     38 H          -6.2264   -2.4315   -0.1837 H       1  UNL1        0.0594
     39 H          -6.1063   -0.3414   -1.0906 H       1  UNL1        0.0291
     40 H          -6.5727    0.3346    0.4216 H       1  UNL1        0.0291
     41 H          -0.8016   -1.9448   -1.3159 H       1  UNL1        0.0296
     42 H          -0.5952   -0.3814   -2.1211 H       1  UNL1        0.0296
     43 H           0.4702   -1.5172    0.5562 H       1  UNL1        0.0326
     44 H           0.2867   -0.0660    1.5309 H       1  UNL1        0.0326
     45 H          -2.9625   -0.0540   -2.1899 H       1  UNL1        0.0560
     46 H          -2.5587   -1.6058   -2.9164 H       1  UNL1        0.0560
     47 H           1.3078   -0.1407   -1.2918 H       1  UNL1        0.0814
     48 H           1.1438    1.2866   -0.2920 H       1  UNL1        0.0814
     49 H          -2.1633    1.4199    1.8319 H       1  UNL1        0.0636
     50 H          -2.4697    3.8380    1.7025 H       1  UNL1        0.0619
     51 H          -0.8790    3.7592   -2.1488 H       1  UNL1        0.0829
     52 H           2.5230    1.5207    1.6626 H       1  UNL1        0.0873
     53 H           3.6978    0.2574    2.0346 H       1  UNL1        0.0873
     54 H          -1.8117    5.0198   -0.3292 H       1  UNL1        0.0633
     55 H           0.2613   -2.7611    4.0640 H       1  UNL1        0.0659
     56 H          -0.9668   -0.6449    4.7115 H       1  UNL1        0.0694
     57 H           4.3032   -2.9339    1.6247 H       1  UNL1        0.0660
     58 H           4.2491   -1.7500    2.9087 H       1  UNL1        0.0660
     59 H           3.7486   -1.3104    1.2934 H       1  UNL1        0.0660
@<TRIPOS>UNITY_ATOM_ATTR
6 1
charge 1
@<TRIPOS>BOND
     1     1    24   ar
     2     1    27   ar
     3     2    16    1
     4     3    12    1
     5     3    29    1
     6     4    25    1
     7     4    28    1
     8     5    17   ar
     9     5    21   ar
    10     6    18    1
    11     6    22    1
    12     6    30    1
    13     6    31    1
    14     7     2    1
    15     7     9    1
    16     7    10    1
    17     7    11    1
    18     8     9    1
    19     8    14    1
    20     8    15    1
    21     8    17    1
    22     9    32    1
    23     9    33    1
    24    10    12    1
    25    10    34    1
    26    10    35    1
    27    11    13    1
    28    11    36    1
    29    11    37    1
    30    12    13    1
    31    12    38    1
    32    13    39    1
    33    13    40    1
    34    14    16    1
    35    14    41    1
    36    14    42    1
    37    15    18    1
    38    15    43    1
    39    15    44    1
    40    16    45    1
    41    16    46    1
    42    17    19   ar
    43    18    47    1
    44    18    48    1
    45    19    20   ar
    46    19    49    1
    47    20    23   ar
    48    20    50    1
    49    21    23   ar
    50    21    51    1
    51    22    24    1
    52    22    52    1
    53    22    53    1
    54    23    54    1
    55    24    25   ar
    56    25    26   ar
    57    26    27   ar
    58    26    55    1
    59    27    56    1
    60    28    57    1
    61    28    58    1
    62    28    59    1
@<TRIPOS>MOLECULE
154925832
 59 62 0 0 0
SMALL
GASTEIGER

@<TRIPOS>ATOM
      1 S           0.8869    0.4533    3.9929 S.2     1  UNL1       -0.0926
      2 O          -3.4780   -1.7041   -1.1056 O.3     1  UNL1       -0.3732
      3 O          -6.8095   -1.7965    1.6320 O.3     1  UNL1       -0.3917
      4 O           2.4546    0.5524    0.4612 O.3     1  UNL1       -0.4941
      5 N          -0.9732    1.9188   -1.2513 N.ar    1  UNL1       -0.2593
      6 N           1.9227   -2.1473    1.1614 N.4     1  UNL1        0.2308
      7 C          -3.5817   -1.0970    0.1878 C.3     1  UNL1        0.0728
      8 C          -1.1415   -0.2325   -0.0614 C.3     1  UNL1        0.0224
      9 C          -2.1927   -0.9539    0.8332 C.3     1  UNL1       -0.0123
     10 C          -4.4808   -2.0092    1.0377 C.3     1  UNL1        0.0024
     11 C          -4.4284    0.1820    0.1498 C.3     1  UNL1       -0.0213
     12 C          -5.9002   -1.7207    0.5465 C.3     1  UNL1        0.0580
     13 C          -5.8625   -0.3127   -0.0491 C.3     1  UNL1       -0.0242
     14 C          -1.1858   -0.9535   -1.4364 C.3     1  UNL1       -0.0181
     15 C           0.2670   -0.4668    0.5390 C.3     1  UNL1       -0.0013
     16 C          -2.5969   -1.0429   -2.0073 C.3     1  UNL1        0.0492
     17 C          -1.3476    1.2945   -0.1120 C.ar    1  UNL1        0.0478
     18 C           0.6009   -1.9512    0.5778 C.3     1  UNL1       -0.0325
     19 C          -1.8934    1.9429    0.9841 C.ar    1  UNL1       -0.0398
     20 C          -2.0661    3.3204    0.9060 C.ar    1  UNL1       -0.0586
     21 C          -1.1561    3.2576   -1.2905 C.ar    1  UNL1        0.0279
     22 C           1.9686   -1.6410    2.5258 C.3     1  UNL1        0.0021
     23 C          -1.6928    3.9978   -0.2495 C.ar    1  UNL1       -0.0436
     24 C           1.6436   -0.1723    2.5900 C.ar    1  UNL1        0.0756
     25 C           1.8700    0.8048    1.6455 C.ar    1  UNL1        0.1353
     26 C           1.4164    2.0835    2.0795 C.ar    1  UNL1       -0.0124
     27 C           0.8606    2.0356    3.3390 C.ar    1  UNL1       -0.0203
     28 C           2.0763    1.3697   -0.6554 C.3     1  UNL1        0.0788
     29 H          -6.8125   -2.6984    1.9889 H       1  UNL1        0.2098
     30 H           2.6135   -1.6517    0.5979 H       1  UNL1        0.2017
     31 H           2.1268   -3.1466    1.1776 H       1  UNL1        0.2017
     32 H          -1.8254   -1.9333    1.0585 H       1  UNL1        0.0302
     33 H          -2.3210   -0.3471    1.7051 H       1  UNL1        0.0302
     34 H          -4.3853   -1.7715    2.0766 H       1  UNL1        0.0318
     35 H          -4.2197   -3.0421    0.9381 H       1  UNL1        0.0318
     36 H          -4.1288    0.8097   -0.6633 H       1  UNL1        0.0294
     37 H          -4.3200    0.7679    1.0386 H       1  UNL1        0.0294
     38 H          -6.2264   -2.4315   -0.1837 H       1  UNL1        0.0594
     39 H          -6.1063   -0.3414   -1.0906 H       1  UNL1        0.0291
     40 H          -6.5727    0.3346    0.4216 H       1  UNL1        0.0291
     41 H          -0.8016   -1.9448   -1.3159 H       1  UNL1        0.0296
     42 H          -0.5952   -0.3814   -2.1211 H       1  UNL1        0.0296
     43 H           0.2928   -0.0758    1.5346 H       1  UNL1        0.0326
     44 H           0.9878    0.0297   -0.0764 H       1  UNL1        0.0326
     45 H          -2.9625   -0.0540   -2.1899 H       1  UNL1        0.0560
     46 H          -2.5587   -1.6058   -2.9164 H       1  UNL1        0.0560
     47 H          -0.1281   -2.4635    1.1702 H       1  UNL1        0.0814
     48 H           0.5947   -2.3399   -0.4191 H       1  UNL1        0.0814
     49 H          -2.1633    1.4199    1.8319 H       1  UNL1        0.0636
     50 H          -2.4697    3.8380    1.7025 H       1  UNL1        0.0619
     51 H          -0.8790    3.7592   -2.1488 H       1  UNL1        0.0829
     52 H           2.9516   -1.7954    2.9194 H       1  UNL1        0.0873
     53 H           1.2362   -2.1685    3.1005 H       1  UNL1        0.0873
     54 H          -1.8117    5.0198   -0.3292 H       1  UNL1        0.0633
     55 H           1.4951    2.9448    1.5164 H       1  UNL1        0.0659
     56 H           0.4738    2.8564    3.8305 H       1  UNL1        0.0694
     57 H           2.6168    1.0581   -1.5248 H       1  UNL1        0.0660
     58 H           2.3041    2.3931   -0.4416 H       1  UNL1        0.0660
     59 H           1.0261    1.2676   -0.8327 H       1  UNL1        0.0660
@<TRIPOS>UNITY_ATOM_ATTR
6 1
charge 1
@<TRIPOS>BOND
     1     1    24   ar
     2     1    27   ar
     3     2    16    1
     4     3    12    1
     5     3    29    1
     6     4    25    1
     7     4    28    1
     8     5    17   ar
     9     5    21   ar
    10     6    18    1
    11     6    22    1
    12     6    30    1
    13     6    31    1
    14     7     2    1
    15     7     9    1
    16     7    10    1
    17     7    11    1
    18     8     9    1
    19     8    14    1
    20     8    15    1
    21     8    17    1
    22     9    32    1
    23     9    33    1
    24    10    12    1
    25    10    34    1
    26    10    35    1
    27    11    13    1
    28    11    36    1
    29    11    37    1
    30    12    13    1
    31    12    38    1
    32    13    39    1
    33    13    40    1
    34    14    16    1
    35    14    41    1
    36    14    42    1
    37    15    18    1
    38    15    43    1
    39    15    44    1
    40    16    45    1
    41    16    46    1
    42    17    19   ar
    43    18    47    1
    44    18    48    1
    45    19    20   ar
    46    19    49    1
    47    20    23   ar
    48    20    50    1
    49    21    23   ar
    50    21    51    1
    51    22    24    1
    52    22    52    1
    53    22    53    1
    54    23    54    1
    55    24    25   ar
    56    25    26   ar
    57    26    27   ar
    58    26    55    1
    59    27    56    1
    60    28    57    1
    61    28    58    1
    62    28    59    1
@<TRIPOS>MOLECULE
154925832
 59 62 0 0 0
SMALL
GASTEIGER

@<TRIPOS>ATOM
      1 S           1.0348   -3.4461    0.3096 S.2     1  UNL1       -0.0926
      2 O          -3.4780   -1.7041   -1.1056 O.3     1  UNL1       -0.3732
      3 O          -6.8095   -1.7965    1.6320 O.3     1  UNL1       -0.3917
      4 O           2.1922   -1.2072    3.2401 O.3     1  UNL1       -0.4941
      5 N          -2.5393    1.7296   -0.5793 N.ar    1  UNL1       -0.2593
      6 N           2.6511   -0.0149    0.2847 N.4     1  UNL1        0.2308
      7 C          -3.5817   -1.0970    0.1878 C.3     1  UNL1        0.0728
      8 C          -1.1415   -0.2325   -0.0614 C.3     1  UNL1        0.0224
      9 C          -2.1927   -0.9539    0.8332 C.3     1  UNL1       -0.0123
     10 C          -4.4808   -2.0092    1.0377 C.3     1  UNL1        0.0024
     11 C          -4.4284    0.1820    0.1498 C.3     1  UNL1       -0.0213
     12 C          -5.9002   -1.7207    0.5465 C.3     1  UNL1        0.0580
     13 C          -5.8625   -0.3127   -0.0491 C.3     1  UNL1       -0.0242
     14 C          -1.1858   -0.9535   -1.4364 C.3     1  UNL1       -0.0181
     15 C           0.2670   -0.4668    0.5390 C.3     1  UNL1       -0.0013
     16 C          -2.5969   -1.0429   -2.0073 C.3     1  UNL1        0.0492
     17 C          -1.3476    1.2945   -0.1120 C.ar    1  UNL1        0.0478
     18 C           1.3342    0.2337   -0.2898 C.3     1  UNL1       -0.0325
     19 C          -0.3286    2.1319    0.3127 C.ar    1  UNL1       -0.0398
     20 C          -0.5467    3.5039    0.2542 C.ar    1  UNL1       -0.0586
     21 C          -2.7149    3.0694   -0.6214 C.ar    1  UNL1        0.0279
     22 C           2.9533   -1.4392    0.2945 C.3     1  UNL1        0.0021
     23 C          -1.7599    3.9897   -0.2207 C.ar    1  UNL1       -0.0436
     24 C           1.9422   -2.2214    1.0899 C.ar    1  UNL1        0.0756
     25 C           1.6106   -2.1016    2.4217 C.ar    1  UNL1        0.1353
     26 C           0.5987   -3.0275    2.8064 C.ar    1  UNL1       -0.0124
     27 C           0.1950   -3.8198    1.7542 C.ar    1  UNL1       -0.0203
     28 C           2.3125   -1.5538    4.6270 C.3     1  UNL1        0.0788
     29 H          -6.8125   -2.6984    1.9889 H       1  UNL1        0.2098
     30 H           2.6698    0.3370    1.2420 H       1  UNL1        0.2017
     31 H           3.3503    0.4627   -0.2841 H       1  UNL1        0.2017
     32 H          -1.8254   -1.9333    1.0585 H       1  UNL1        0.0302
     33 H          -2.3210   -0.3471    1.7051 H       1  UNL1        0.0302
     34 H          -4.3853   -1.7715    2.0766 H       1  UNL1        0.0318
     35 H          -4.2197   -3.0421    0.9381 H       1  UNL1        0.0318
     36 H          -4.1288    0.8097   -0.6633 H       1  UNL1        0.0294
     37 H          -4.3200    0.7679    1.0386 H       1  UNL1        0.0294
     38 H          -6.2264   -2.4315   -0.1837 H       1  UNL1        0.0594
     39 H          -6.1063   -0.3414   -1.0906 H       1  UNL1        0.0291
     40 H          -6.5727    0.3346    0.4216 H       1  UNL1        0.0291
     41 H          -0.8016   -1.9448   -1.3159 H       1  UNL1        0.0296
     42 H          -0.5952   -0.3814   -2.1211 H       1  UNL1        0.0296
     43 H           0.4702   -1.5172    0.5562 H       1  UNL1        0.0326
     44 H           0.2867   -0.0660    1.5309 H       1  UNL1        0.0326
     45 H          -2.9625   -0.0540   -2.1899 H       1  UNL1        0.0560
     46 H          -2.5587   -1.6058   -2.9164 H       1  UNL1        0.0560
     47 H           1.3078   -0.1407   -1.2918 H       1  UNL1        0.0814
     48 H           1.1438    1.2866   -0.2920 H       1  UNL1        0.0814
     49 H           0.5641    1.7492    0.6616 H       1  UNL1        0.0636
     50 H           0.1889    4.1590    0.5620 H       1  UNL1        0.0619
     51 H          -3.6159    3.4287   -0.9738 H       1  UNL1        0.0829
     52 H           3.9213   -1.5847    0.7269 H       1  UNL1        0.0873
     53 H           2.9256   -1.7914   -0.7155 H       1  UNL1        0.0873
     54 H          -1.9432    5.0039   -0.2731 H       1  UNL1        0.0633
     55 H           0.2132   -3.0966    3.7612 H       1  UNL1        0.0659
     56 H          -0.5283   -4.5522    1.8279 H       1  UNL1        0.0694
     57 H           2.7907   -0.7548    5.1541 H       1  UNL1        0.0660
     58 H           2.8975   -2.4446    4.7225 H       1  UNL1        0.0660
     59 H           1.3391   -1.7206    5.0387 H       1  UNL1        0.0660
@<TRIPOS>UNITY_ATOM_ATTR
6 1
charge 1
@<TRIPOS>BOND
     1     1    24   ar
     2     1    27   ar
     3     2    16    1
     4     3    12    1
     5     3    29    1
     6     4    25    1
     7     4    28    1
     8     5    17   ar
     9     5    21   ar
    10     6    18    1
    11     6    22    1
    12     6    30    1
    13     6    31    1
    14     7     2    1
    15     7     9    1
    16     7    10    1
    17     7    11    1
    18     8     9    1
    19     8    14    1
    20     8    15    1
    21     8    17    1
    22     9    32    1
    23     9    33    1
    24    10    12    1
    25    10    34    1
    26    10    35    1
    27    11    13    1
    28    11    36    1
    29    11    37    1
    30    12    13    1
    31    12    38    1
    32    13    39    1
    33    13    40    1
    34    14    16    1
    35    14    41    1
    36    14    42    1
    37    15    18    1
    38    15    43    1
    39    15    44    1
    40    16    45    1
    41    16    46    1
    42    17    19   ar
    43    18    47    1
    44    18    48    1
    45    19    20   ar
    46    19    49    1
    47    20    23   ar
    48    20    50    1
    49    21    23   ar
    50    21    51    1
    51    22    24    1
    52    22    52    1
    53    22    53    1
    54    23    54    1
    55    24    25   ar
    56    25    26   ar
    57    26    27   ar
    58    26    55    1
    59    27    56    1
    60    28    57    1
    61    28    58    1
    62    28    59    1
@<TRIPOS>MOLECULE
154925832
 59 62 0 0 0
SMALL
GASTEIGER

@<TRIPOS>ATOM
      1 S           3.8361    0.6695    0.2269 S.2     1  UNL1       -0.0926
      2 O          -3.4780   -1.7041   -1.1056 O.3     1  UNL1       -0.3732
      3 O          -6.8095   -1.7965    1.6320 O.3     1  UNL1       -0.3917
      4 O           4.5370    4.1731   -1.2476 O.3     1  UNL1       -0.4941
      5 N          -0.6967    2.0248    0.8212 N.ar    1  UNL1       -0.2593
      6 N           1.0858    1.6705   -0.3064 N.4     1  UNL1        0.2308
      7 C          -3.5817   -1.0970    0.1878 C.3     1  UNL1        0.0728
      8 C          -1.1415   -0.2325   -0.0614 C.3     1  UNL1        0.0224
      9 C          -2.1927   -0.9539    0.8332 C.3     1  UNL1       -0.0123
     10 C          -4.4808   -2.0092    1.0377 C.3     1  UNL1        0.0024
     11 C          -4.4284    0.1820    0.1498 C.3     1  UNL1       -0.0213
     12 C          -5.9002   -1.7207    0.5465 C.3     1  UNL1        0.0580
     13 C          -5.8625   -0.3127   -0.0491 C.3     1  UNL1       -0.0242
     14 C          -1.1858   -0.9535   -1.4364 C.3     1  UNL1       -0.0181
     15 C           0.2670   -0.4668    0.5390 C.3     1  UNL1       -0.0013
     16 C          -2.5969   -1.0429   -2.0073 C.3     1  UNL1        0.0492
     17 C          -1.3476    1.2945   -0.1120 C.ar    1  UNL1        0.0478
     18 C           1.3342    0.2337   -0.2898 C.3     1  UNL1       -0.0325
     19 C          -2.1696    1.8370   -1.0866 C.ar    1  UNL1       -0.0398
     20 C          -2.3341    3.2176   -1.1046 C.ar    1  UNL1       -0.0586
     21 C          -0.8807    3.3631    0.7724 C.ar    1  UNL1        0.0279
     22 C           2.0858    2.3615   -1.1080 C.3     1  UNL1        0.0021
     23 C          -1.6810    4.0023   -0.1607 C.ar    1  UNL1       -0.0436
     24 C           3.4789    2.1349   -0.5837 C.ar    1  UNL1        0.0756
     25 C           4.5748    2.9666   -0.6552 C.ar    1  UNL1        0.1353
     26 C           5.7228    2.3930   -0.0367 C.ar    1  UNL1       -0.0124
     27 C           5.4608    1.1449    0.4843 C.ar    1  UNL1       -0.0203
     28 C           5.7436    4.6535   -1.8568 C.3     1  UNL1        0.0788
     29 H          -6.8125   -2.6984    1.9889 H       1  UNL1        0.2098
     30 H           1.1196    2.0263    0.6490 H       1  UNL1        0.2017
     31 H           0.1670    1.8376   -0.7166 H       1  UNL1        0.2017
     32 H          -1.8254   -1.9333    1.0585 H       1  UNL1        0.0302
     33 H          -2.3210   -0.3471    1.7051 H       1  UNL1        0.0302
     34 H          -4.3853   -1.7715    2.0766 H       1  UNL1        0.0318
     35 H          -4.2197   -3.0421    0.9381 H       1  UNL1        0.0318
     36 H          -4.1288    0.8097   -0.6633 H       1  UNL1        0.0294
     37 H          -4.3200    0.7679    1.0386 H       1  UNL1        0.0294
     38 H          -6.2264   -2.4315   -0.1837 H       1  UNL1        0.0594
     39 H          -6.1063   -0.3414   -1.0906 H       1  UNL1        0.0291
     40 H          -6.5727    0.3346    0.4216 H       1  UNL1        0.0291
     41 H          -0.8016   -1.9448   -1.3159 H       1  UNL1        0.0296
     42 H          -0.5952   -0.3814   -2.1211 H       1  UNL1        0.0296
     43 H           0.4702   -1.5172    0.5562 H       1  UNL1        0.0326
     44 H           0.2867   -0.0660    1.5309 H       1  UNL1        0.0326
     45 H          -2.9625   -0.0540   -2.1899 H       1  UNL1        0.0560
     46 H          -2.5587   -1.6058   -2.9164 H       1  UNL1        0.0560
     47 H           2.2966    0.0449    0.1383 H       1  UNL1        0.0814
     48 H           1.3043   -0.1406   -1.2917 H       1  UNL1        0.0814
     49 H          -2.6448    1.2353   -1.7775 H       1  UNL1        0.0636
     50 H          -2.9386    3.6581   -1.8157 H       1  UNL1        0.0619
     51 H          -0.3952    3.9445    1.4733 H       1  UNL1        0.0829
     52 H           1.8768    3.4108   -1.0929 H       1  UNL1        0.0873
     53 H           2.0388    1.9734   -2.1041 H       1  UNL1        0.0873
     54 H          -1.7889    5.0286   -0.1553 H       1  UNL1        0.0633
     55 H           6.6427    2.8579    0.0151 H       1  UNL1        0.0659
     56 H           6.1612    0.5648    0.9721 H       1  UNL1        0.0694
     57 H           5.5671    5.6179   -2.2856 H       1  UNL1        0.0660
     58 H           6.0514    3.9734   -2.6232 H       1  UNL1        0.0660
     59 H           6.5122    4.7278   -1.1161 H       1  UNL1        0.0660
@<TRIPOS>UNITY_ATOM_ATTR
6 1
charge 1
@<TRIPOS>BOND
     1     1    24   ar
     2     1    27   ar
     3     2    16    1
     4     3    12    1
     5     3    29    1
     6     4    25    1
     7     4    28    1
     8     5    17   ar
     9     5    21   ar
    10     6    18    1
    11     6    22    1
    12     6    30    1
    13     6    31    1
    14     7     2    1
    15     7     9    1
    16     7    10    1
    17     7    11    1
    18     8     9    1
    19     8    14    1
    20     8    15    1
    21     8    17    1
    22     9    32    1
    23     9    33    1
    24    10    12    1
    25    10    34    1
    26    10    35    1
    27    11    13    1
    28    11    36    1
    29    11    37    1
    30    12    13    1
    31    12    38    1
    32    13    39    1
    33    13    40    1
    34    14    16    1
    35    14    41    1
    36    14    42    1
    37    15    18    1
    38    15    43    1
    39    15    44    1
    40    16    45    1
    41    16    46    1
    42    17    19   ar
    43    18    47    1
    44    18    48    1
    45    19    20   ar
    46    19    49    1
    47    20    23   ar
    48    20    50    1
    49    21    23   ar
    50    21    51    1
    51    22    24    1
    52    22    52    1
    53    22    53    1
    54    23    54    1
    55    24    25   ar
    56    25    26   ar
    57    26    27   ar
    58    26    55    1
    59    27    56    1
    60    28    57    1
    61    28    58    1
    62    28    59    1
@<TRIPOS>MOLECULE
154925832
 59 62 0 0 0
SMALL
GASTEIGER

@<TRIPOS>ATOM
      1 S           4.3862    0.8083   -1.1745 S.2     1  UNL1       -0.0926
      2 O          -3.4780   -1.7041   -1.1056 O.3     1  UNL1       -0.3732
      3 O          -6.8095   -1.7965    1.6320 O.3     1  UNL1       -0.3917
      4 O           3.6732    3.9553    0.9534 O.3     1  UNL1       -0.4941
      5 N          -0.6967    2.0248    0.8212 N.ar    1  UNL1       -0.2593
      6 N           1.0858    1.6705   -0.3064 N.4     1  UNL1        0.2308
      7 C          -3.5817   -1.0970    0.1878 C.3     1  UNL1        0.0728
      8 C          -1.1415   -0.2325   -0.0614 C.3     1  UNL1        0.0224
      9 C          -2.1927   -0.9539    0.8332 C.3     1  UNL1       -0.0123
     10 C          -4.4808   -2.0092    1.0377 C.3     1  UNL1        0.0024
     11 C          -4.4284    0.1820    0.1498 C.3     1  UNL1       -0.0213
     12 C          -5.9002   -1.7207    0.5465 C.3     1  UNL1        0.0580
     13 C          -5.8625   -0.3127   -0.0491 C.3     1  UNL1       -0.0242
     14 C          -1.1858   -0.9535   -1.4364 C.3     1  UNL1       -0.0181
     15 C           0.2670   -0.4668    0.5390 C.3     1  UNL1       -0.0013
     16 C          -2.5969   -1.0429   -2.0073 C.3     1  UNL1        0.0492
     17 C          -1.3476    1.2945   -0.1120 C.ar    1  UNL1        0.0478
     18 C           1.3342    0.2337   -0.2898 C.3     1  UNL1       -0.0325
     19 C          -2.1696    1.8370   -1.0866 C.ar    1  UNL1       -0.0398
     20 C          -2.3341    3.2176   -1.1046 C.ar    1  UNL1       -0.0586
     21 C          -0.8807    3.3631    0.7724 C.ar    1  UNL1        0.0279
     22 C           2.0858    2.3615   -1.1080 C.3     1  UNL1        0.0021
     23 C          -1.6810    4.0023   -0.1607 C.ar    1  UNL1       -0.0436
     24 C           3.4789    2.1349   -0.5837 C.ar    1  UNL1        0.0756
     25 C           4.1802    2.8660    0.3499 C.ar    1  UNL1        0.1353
     26 C           5.4794    2.3301    0.5829 C.ar    1  UNL1       -0.0124
     27 C           5.7218    1.2098   -0.1812 C.ar    1  UNL1       -0.0203
     28 C           2.7156    4.7355    0.2238 C.3     1  UNL1        0.0788
     29 H          -6.8125   -2.6984    1.9889 H       1  UNL1        0.2098
     30 H           1.1196    2.0263    0.6490 H       1  UNL1        0.2017
     31 H           0.1670    1.8376   -0.7166 H       1  UNL1        0.2017
     32 H          -1.8254   -1.9333    1.0585 H       1  UNL1        0.0302
     33 H          -2.3210   -0.3471    1.7051 H       1  UNL1        0.0302
     34 H          -4.3853   -1.7715    2.0766 H       1  UNL1        0.0318
     35 H          -4.2197   -3.0421    0.9381 H       1  UNL1        0.0318
     36 H          -4.1288    0.8097   -0.6633 H       1  UNL1        0.0294
     37 H          -4.3200    0.7679    1.0386 H       1  UNL1        0.0294
     38 H          -6.2264   -2.4315   -0.1837 H       1  UNL1        0.0594
     39 H          -6.1063   -0.3414   -1.0906 H       1  UNL1        0.0291
     40 H          -6.5727    0.3346    0.4216 H       1  UNL1        0.0291
     41 H          -0.8016   -1.9448   -1.3159 H       1  UNL1        0.0296
     42 H          -0.5952   -0.3814   -2.1211 H       1  UNL1        0.0296
     43 H           0.4702   -1.5172    0.5562 H       1  UNL1        0.0326
     44 H           0.2867   -0.0660    1.5309 H       1  UNL1        0.0326
     45 H          -2.9625   -0.0540   -2.1899 H       1  UNL1        0.0560
     46 H          -2.5587   -1.6058   -2.9164 H       1  UNL1        0.0560
     47 H           2.2966    0.0449    0.1383 H       1  UNL1        0.0814
     48 H           1.3043   -0.1406   -1.2917 H       1  UNL1        0.0814
     49 H          -2.6448    1.2353   -1.7775 H       1  UNL1        0.0636
     50 H          -2.9386    3.6581   -1.8157 H       1  UNL1        0.0619
     51 H          -0.3952    3.9445    1.4733 H       1  UNL1        0.0829
     52 H           1.8768    3.4108   -1.0929 H       1  UNL1        0.0873
     53 H           2.0388    1.9734   -2.1041 H       1  UNL1        0.0873
     54 H          -1.7889    5.0286   -0.1553 H       1  UNL1        0.0633
     55 H           6.1591    2.7338    1.2462 H       1  UNL1        0.0659
     56 H           6.6044    0.6754   -0.1577 H       1  UNL1        0.0694
     57 H           2.4009    5.5647    0.8224 H       1  UNL1        0.0660
     58 H           1.8689    4.1272   -0.0164 H       1  UNL1        0.0660
     59 H           3.1630    5.0965   -0.6787 H       1  UNL1        0.0660
@<TRIPOS>UNITY_ATOM_ATTR
6 1
charge 1
@<TRIPOS>BOND
     1     1    24   ar
     2     1    27   ar
     3     2    16    1
     4     3    12    1
     5     3    29    1
     6     4    25    1
     7     4    28    1
     8     5    17   ar
     9     5    21   ar
    10     6    18    1
    11     6    22    1
    12     6    30    1
    13     6    31    1
    14     7     2    1
    15     7     9    1
    16     7    10    1
    17     7    11    1
    18     8     9    1
    19     8    14    1
    20     8    15    1
    21     8    17    1
    22     9    32    1
    23     9    33    1
    24    10    12    1
    25    10    34    1
    26    10    35    1
    27    11    13    1
    28    11    36    1
    29    11    37    1
    30    12    13    1
    31    12    38    1
    32    13    39    1
    33    13    40    1
    34    14    16    1
    35    14    41    1
    36    14    42    1
    37    15    18    1
    38    15    43    1
    39    15    44    1
    40    16    45    1
    41    16    46    1
    42    17    19   ar
    43    18    47    1
    44    18    48    1
    45    19    20   ar
    46    19    49    1
    47    20    23   ar
    48    20    50    1
    49    21    23   ar
    50    21    51    1
    51    22    24    1
    52    22    52    1
    53    22    53    1
    54    23    54    1
    55    24    25   ar
    56    25    26   ar
    57    26    27   ar
    58    26    55    1
    59    27    56    1
    60    28    57    1
    61    28    58    1
    62    28    59    1
@<TRIPOS>MOLECULE
154925832
 59 62 0 0 0
SMALL
GASTEIGER

@<TRIPOS>ATOM
      1 S           1.5808    4.6325   -2.6231 S.2     1  UNL1       -0.0926
      2 O          -3.4780   -1.7041   -1.1056 O.3     1  UNL1       -0.3732
      3 O          -6.8095   -1.7965    1.6320 O.3     1  UNL1       -0.3917
      4 O           2.0332    4.3505    1.2052 O.3     1  UNL1       -0.4941
      5 N          -0.6967    2.0248    0.8212 N.ar    1  UNL1       -0.2593
      6 N           1.0858    1.6705   -0.3064 N.4     1  UNL1        0.2308
      7 C          -3.5817   -1.0970    0.1878 C.3     1  UNL1        0.0728
      8 C          -1.1415   -0.2325   -0.0614 C.3     1  UNL1        0.0224
      9 C          -2.1927   -0.9539    0.8332 C.3     1  UNL1       -0.0123
     10 C          -4.4808   -2.0092    1.0377 C.3     1  UNL1        0.0024
     11 C          -4.4284    0.1820    0.1498 C.3     1  UNL1       -0.0213
     12 C          -5.9002   -1.7207    0.5465 C.3     1  UNL1        0.0580
     13 C          -5.8625   -0.3127   -0.0491 C.3     1  UNL1       -0.0242
     14 C          -1.1858   -0.9535   -1.4364 C.3     1  UNL1       -0.0181
     15 C           0.2670   -0.4668    0.5390 C.3     1  UNL1       -0.0013
     16 C          -2.5969   -1.0429   -2.0073 C.3     1  UNL1        0.0492
     17 C          -1.3476    1.2945   -0.1120 C.ar    1  UNL1        0.0478
     18 C           1.3342    0.2337   -0.2898 C.3     1  UNL1       -0.0325
     19 C          -2.1696    1.8370   -1.0866 C.ar    1  UNL1       -0.0398
     20 C          -2.3341    3.2176   -1.1046 C.ar    1  UNL1       -0.0586
     21 C          -0.8807    3.3631    0.7724 C.ar    1  UNL1        0.0279
     22 C           2.0858    2.3615   -1.1080 C.3     1  UNL1        0.0021
     23 C          -1.6810    4.0023   -0.1607 C.ar    1  UNL1       -0.0436
     24 C           1.8593    3.8498   -1.1258 C.ar    1  UNL1        0.0756
     25 C           1.8402    4.7336   -0.0692 C.ar    1  UNL1        0.1353
     26 C           1.5934    6.0706   -0.4945 C.ar    1  UNL1       -0.0124
     27 C           1.4334    6.1582   -1.8599 C.ar    1  UNL1       -0.0203
     28 C           1.3761    5.1043    2.2337 C.3     1  UNL1        0.0788
     29 H          -6.8125   -2.6984    1.9889 H       1  UNL1        0.2098
     30 H           1.1196    2.0263    0.6490 H       1  UNL1        0.2017
     31 H           0.1670    1.8376   -0.7166 H       1  UNL1        0.2017
     32 H          -1.8254   -1.9333    1.0585 H       1  UNL1        0.0302
     33 H          -2.3210   -0.3471    1.7051 H       1  UNL1        0.0302
     34 H          -4.3853   -1.7715    2.0766 H       1  UNL1        0.0318
     35 H          -4.2197   -3.0421    0.9381 H       1  UNL1        0.0318
     36 H          -4.1288    0.8097   -0.6633 H       1  UNL1        0.0294
     37 H          -4.3200    0.7679    1.0386 H       1  UNL1        0.0294
     38 H          -6.2264   -2.4315   -0.1837 H       1  UNL1        0.0594
     39 H          -6.1063   -0.3414   -1.0906 H       1  UNL1        0.0291
     40 H          -6.5727    0.3346    0.4216 H       1  UNL1        0.0291
     41 H          -0.8016   -1.9448   -1.3159 H       1  UNL1        0.0296
     42 H          -0.5952   -0.3814   -2.1211 H       1  UNL1        0.0296
     43 H           0.4702   -1.5172    0.5562 H       1  UNL1        0.0326
     44 H           0.2867   -0.0660    1.5309 H       1  UNL1        0.0326
     45 H          -2.9625   -0.0540   -2.1899 H       1  UNL1        0.0560
     46 H          -2.5587   -1.6058   -2.9164 H       1  UNL1        0.0560
     47 H           2.2966    0.0449    0.1383 H       1  UNL1        0.0814
     48 H           1.3043   -0.1406   -1.2917 H       1  UNL1        0.0814
     49 H          -2.6448    1.2353   -1.7775 H       1  UNL1        0.0636
     50 H          -2.9386    3.6581   -1.8157 H       1  UNL1        0.0619
     51 H          -0.3952    3.9445    1.4733 H       1  UNL1        0.0829
     52 H           2.0404    1.9925   -2.1114 H       1  UNL1        0.0873
     53 H           3.0457    2.1769   -0.6726 H       1  UNL1        0.0873
     54 H          -1.7889    5.0286   -0.1553 H       1  UNL1        0.0633
     55 H           1.5407    6.8786    0.1452 H       1  UNL1        0.0659
     56 H           1.2467    7.0394   -2.3635 H       1  UNL1        0.0694
     57 H           1.6183    4.6896    3.1899 H       1  UNL1        0.0660
     58 H           0.3173    5.0631    2.0848 H       1  UNL1        0.0660
     59 H           1.7025    6.1225    2.1935 H       1  UNL1        0.0660
@<TRIPOS>UNITY_ATOM_ATTR
6 1
charge 1
@<TRIPOS>BOND
     1     1    24   ar
     2     1    27   ar
     3     2    16    1
     4     3    12    1
     5     3    29    1
     6     4    25    1
     7     4    28    1
     8     5    17   ar
     9     5    21   ar
    10     6    18    1
    11     6    22    1
    12     6    30    1
    13     6    31    1
    14     7     2    1
    15     7     9    1
    16     7    10    1
    17     7    11    1
    18     8     9    1
    19     8    14    1
    20     8    15    1
    21     8    17    1
    22     9    32    1
    23     9    33    1
    24    10    12    1
    25    10    34    1
    26    10    35    1
    27    11    13    1
    28    11    36    1
    29    11    37    1
    30    12    13    1
    31    12    38    1
    32    13    39    1
    33    13    40    1
    34    14    16    1
    35    14    41    1
    36    14    42    1
    37    15    18    1
    38    15    43    1
    39    15    44    1
    40    16    45    1
    41    16    46    1
    42    17    19   ar
    43    18    47    1
    44    18    48    1
    45    19    20   ar
    46    19    49    1
    47    20    23   ar
    48    20    50    1
    49    21    23   ar
    50    21    51    1
    51    22    24    1
    52    22    52    1
    53    22    53    1
    54    23    54    1
    55    24    25   ar
    56    25    26   ar
    57    26    27   ar
    58    26    55    1
    59    27    56    1
    60    28    57    1
    61    28    58    1
    62    28    59    1
@<TRIPOS>MOLECULE
154925832
 59 62 0 0 0
SMALL
GASTEIGER

@<TRIPOS>ATOM
      1 S           4.6797   -1.3609    2.3760 S.2     1  UNL1       -0.0926
      2 O          -3.4780   -1.7041   -1.1056 O.3     1  UNL1       -0.3732
      3 O          -6.8095   -1.7965    1.6320 O.3     1  UNL1       -0.3917
      4 O           4.7084    2.4811    2.7987 O.3     1  UNL1       -0.4941
      5 N          -2.1487    1.7653   -1.0941 N.ar    1  UNL1       -0.2593
      6 N           2.6511   -0.0149    0.2847 N.4     1  UNL1        0.2308
      7 C          -3.5817   -1.0970    0.1878 C.3     1  UNL1        0.0728
      8 C          -1.1415   -0.2325   -0.0614 C.3     1  UNL1        0.0224
      9 C          -2.1927   -0.9539    0.8332 C.3     1  UNL1       -0.0123
     10 C          -4.4808   -2.0092    1.0377 C.3     1  UNL1        0.0024
     11 C          -4.4284    0.1820    0.1498 C.3     1  UNL1       -0.0213
     12 C          -5.9002   -1.7207    0.5465 C.3     1  UNL1        0.0580
     13 C          -5.8625   -0.3127   -0.0491 C.3     1  UNL1       -0.0242
     14 C          -1.1858   -0.9535   -1.4364 C.3     1  UNL1       -0.0181
     15 C           0.2670   -0.4668    0.5390 C.3     1  UNL1       -0.0013
     16 C          -2.5969   -1.0429   -2.0073 C.3     1  UNL1        0.0492
     17 C          -1.3476    1.2945   -0.1120 C.ar    1  UNL1        0.0478
     18 C           1.3342    0.2337   -0.2898 C.3     1  UNL1       -0.0325
     19 C          -0.7189    2.0962    0.8271 C.ar    1  UNL1       -0.0398
     20 C          -0.9257    3.4693    0.7536 C.ar    1  UNL1       -0.0586
     21 C          -2.3261    3.1049   -1.1339 C.ar    1  UNL1        0.0279
     22 C           2.7195    0.4689    1.6564 C.3     1  UNL1        0.0021
     23 C          -1.7431    3.9912   -0.2427 C.ar    1  UNL1       -0.0436
     24 C           4.0770    0.2381    2.2652 C.ar    1  UNL1        0.0756
     25 C           4.9622    1.1608    2.7778 C.ar    1  UNL1        0.1353
     26 C           6.1508    0.5471    3.2676 C.ar    1  UNL1       -0.0124
     27 C           6.1290   -0.8214    3.1110 C.ar    1  UNL1       -0.0203
     28 C           3.3382    2.8939    2.8993 C.3     1  UNL1        0.0788
     29 H          -6.8125   -2.6984    1.9889 H       1  UNL1        0.2098
     30 H           3.3557    0.4660   -0.2745 H       1  UNL1        0.2017
     31 H           2.8220   -1.0206    0.2850 H       1  UNL1        0.2017
     32 H          -1.8254   -1.9333    1.0585 H       1  UNL1        0.0302
     33 H          -2.3210   -0.3471    1.7051 H       1  UNL1        0.0302
     34 H          -4.3853   -1.7715    2.0766 H       1  UNL1        0.0318
     35 H          -4.2197   -3.0421    0.9381 H       1  UNL1        0.0318
     36 H          -4.1288    0.8097   -0.6633 H       1  UNL1        0.0294
     37 H          -4.3200    0.7679    1.0386 H       1  UNL1        0.0294
     38 H          -6.2264   -2.4315   -0.1837 H       1  UNL1        0.0594
     39 H          -6.1063   -0.3414   -1.0906 H       1  UNL1        0.0291
     40 H          -6.5727    0.3346    0.4216 H       1  UNL1        0.0291
     41 H          -0.8016   -1.9448   -1.3159 H       1  UNL1        0.0296
     42 H          -0.5952   -0.3814   -2.1211 H       1  UNL1        0.0296
     43 H           0.4702   -1.5172    0.5562 H       1  UNL1        0.0326
     44 H           0.2867   -0.0660    1.5309 H       1  UNL1        0.0326
     45 H          -2.9625   -0.0540   -2.1899 H       1  UNL1        0.0560
     46 H          -2.5587   -1.6058   -2.9164 H       1  UNL1        0.0560
     47 H           1.3078   -0.1407   -1.2918 H       1  UNL1        0.0814
     48 H           1.1438    1.2866   -0.2920 H       1  UNL1        0.0814
     49 H          -0.1162    1.6871    1.5581 H       1  UNL1        0.0636
     50 H          -0.4743    4.0985    1.4358 H       1  UNL1        0.0619
     51 H          -2.9333    3.4911   -1.8737 H       1  UNL1        0.0829
     52 H           1.9858   -0.0451    2.2416 H       1  UNL1        0.0873
     53 H           2.5350    1.5229    1.6462 H       1  UNL1        0.0873
     54 H          -1.9103    5.0069   -0.3162 H       1  UNL1        0.0633
     55 H           6.9360    1.0666    3.6901 H       1  UNL1        0.0659
     56 H           6.8958   -1.4476    3.4024 H       1  UNL1        0.0694
     57 H           3.2873    3.9628    2.9049 H       1  UNL1        0.0660
     58 H           2.9164    2.5120    3.8054 H       1  UNL1        0.0660
     59 H           2.7891    2.5151    2.0628 H       1  UNL1        0.0660
@<TRIPOS>UNITY_ATOM_ATTR
6 1
charge 1
@<TRIPOS>BOND
     1     1    24   ar
     2     1    27   ar
     3     2    16    1
     4     3    12    1
     5     3    29    1
     6     4    25    1
     7     4    28    1
     8     5    17   ar
     9     5    21   ar
    10     6    18    1
    11     6    22    1
    12     6    30    1
    13     6    31    1
    14     7     2    1
    15     7     9    1
    16     7    10    1
    17     7    11    1
    18     8     9    1
    19     8    14    1
    20     8    15    1
    21     8    17    1
    22     9    32    1
    23     9    33    1
    24    10    12    1
    25    10    34    1
    26    10    35    1
    27    11    13    1
    28    11    36    1
    29    11    37    1
    30    12    13    1
    31    12    38    1
    32    13    39    1
    33    13    40    1
    34    14    16    1
    35    14    41    1
    36    14    42    1
    37    15    18    1
    38    15    43    1
    39    15    44    1
    40    16    45    1
    41    16    46    1
    42    17    19   ar
    43    18    47    1
    44    18    48    1
    45    19    20   ar
    46    19    49    1
    47    20    23   ar
    48    20    50    1
    49    21    23   ar
    50    21    51    1
    51    22    24    1
    52    22    52    1
    53    22    53    1
    54    23    54    1
    55    24    25   ar
    56    25    26   ar
    57    26    27   ar
    58    26    55    1
    59    27    56    1
    60    28    57    1
    61    28    58    1
    62    28    59    1
@<TRIPOS>MOLECULE
154925832
 59 62 0 0 0
SMALL
GASTEIGER

@<TRIPOS>ATOM
      1 S           0.5251    0.7195    3.3387 S.2     1  UNL1       -0.0926
      2 O          -3.4780   -1.7041   -1.1056 O.3     1  UNL1       -0.3732
      3 O          -6.8095   -1.7965    1.6320 O.3     1  UNL1       -0.3917
      4 O           2.4224   -2.4927    2.3276 O.3     1  UNL1       -0.4941
      5 N          -2.3814    1.7902    0.6045 N.ar    1  UNL1       -0.2593
      6 N           2.6511   -0.0149    0.2847 N.4     1  UNL1        0.2308
      7 C          -3.5817   -1.0970    0.1878 C.3     1  UNL1        0.0728
      8 C          -1.1415   -0.2325   -0.0614 C.3     1  UNL1        0.0224
      9 C          -2.1927   -0.9539    0.8332 C.3     1  UNL1       -0.0123
     10 C          -4.4808   -2.0092    1.0377 C.3     1  UNL1        0.0024
     11 C          -4.4284    0.1820    0.1498 C.3     1  UNL1       -0.0213
     12 C          -5.9002   -1.7207    0.5465 C.3     1  UNL1        0.0580
     13 C          -5.8625   -0.3127   -0.0491 C.3     1  UNL1       -0.0242
     14 C          -1.1858   -0.9535   -1.4364 C.3     1  UNL1       -0.0181
     15 C           0.2670   -0.4668    0.5390 C.3     1  UNL1       -0.0013
     16 C          -2.5969   -1.0429   -2.0073 C.3     1  UNL1        0.0492
     17 C          -1.3476    1.2945   -0.1120 C.ar    1  UNL1        0.0478
     18 C           1.3342    0.2337   -0.2898 C.3     1  UNL1       -0.0325
     19 C          -0.4864    2.0714   -0.8701 C.ar    1  UNL1       -0.0398
     20 C          -0.6998    3.4452   -0.8943 C.ar    1  UNL1       -0.0586
     21 C          -2.5576    3.1296    0.5569 C.ar    1  UNL1        0.0279
     22 C           2.7195    0.4689    1.6564 C.3     1  UNL1        0.0021
     23 C          -1.7531    3.9923   -0.1700 C.ar    1  UNL1       -0.0436
     24 C           1.7167   -0.2190    2.5441 C.ar    1  UNL1        0.0756
     25 C           1.5984   -1.5600    2.8367 C.ar    1  UNL1        0.1353
     26 C           0.5153   -1.8202    3.7247 C.ar    1  UNL1       -0.0124
     27 C          -0.1532   -0.6684    4.0772 C.ar    1  UNL1       -0.0203
     28 C           2.9952   -2.2415    1.0366 C.3     1  UNL1        0.0788
     29 H          -6.8125   -2.6984    1.9889 H       1  UNL1        0.2098
     30 H           3.3557    0.4660   -0.2745 H       1  UNL1        0.2017
     31 H           2.8220   -1.0206    0.2850 H       1  UNL1        0.2017
     32 H          -1.8254   -1.9333    1.0585 H       1  UNL1        0.0302
     33 H          -2.3210   -0.3471    1.7051 H       1  UNL1        0.0302
     34 H          -4.3853   -1.7715    2.0766 H       1  UNL1        0.0318
     35 H          -4.2197   -3.0421    0.9381 H       1  UNL1        0.0318
     36 H          -4.1288    0.8097   -0.6633 H       1  UNL1        0.0294
     37 H          -4.3200    0.7679    1.0386 H       1  UNL1        0.0294
     38 H          -6.2264   -2.4315   -0.1837 H       1  UNL1        0.0594
     39 H          -6.1063   -0.3414   -1.0906 H       1  UNL1        0.0291
     40 H          -6.5727    0.3346    0.4216 H       1  UNL1        0.0291
     41 H          -0.8016   -1.9448   -1.3159 H       1  UNL1        0.0296
     42 H          -0.5952   -0.3814   -2.1211 H       1  UNL1        0.0296
     43 H           0.4702   -1.5172    0.5562 H       1  UNL1        0.0326
     44 H           0.2867   -0.0660    1.5309 H       1  UNL1        0.0326
     45 H          -2.9625   -0.0540   -2.1899 H       1  UNL1        0.0560
     46 H          -2.5587   -1.6058   -2.9164 H       1  UNL1        0.0560
     47 H           1.3078   -0.1407   -1.2918 H       1  UNL1        0.0814
     48 H           1.1438    1.2866   -0.2920 H       1  UNL1        0.0814
     49 H           0.2891    1.6438   -1.4000 H       1  UNL1        0.0636
     50 H          -0.0789    4.0563   -1.4475 H       1  UNL1        0.0619
     51 H          -3.3396    3.5346    1.0950 H       1  UNL1        0.0829
     52 H           2.5230    1.5207    1.6626 H       1  UNL1        0.0873
     53 H           3.6978    0.2574    2.0346 H       1  UNL1        0.0873
     54 H          -1.9302    5.0089   -0.1738 H       1  UNL1        0.0633
     55 H           0.2613   -2.7611    4.0640 H       1  UNL1        0.0659
     56 H          -0.9668   -0.6449    4.7115 H       1  UNL1        0.0694
     57 H           3.6245   -3.0615    0.7600 H       1  UNL1        0.0660
     58 H           3.5751   -1.3431    1.0724 H       1  UNL1        0.0660
     59 H           2.2132   -2.1326    0.3144 H       1  UNL1        0.0660
@<TRIPOS>UNITY_ATOM_ATTR
6 1
charge 1
@<TRIPOS>BOND
     1     1    24   ar
     2     1    27   ar
     3     2    16    1
     4     3    12    1
     5     3    29    1
     6     4    25    1
     7     4    28    1
     8     5    17   ar
     9     5    21   ar
    10     6    18    1
    11     6    22    1
    12     6    30    1
    13     6    31    1
    14     7     2    1
    15     7     9    1
    16     7    10    1
    17     7    11    1
    18     8     9    1
    19     8    14    1
    20     8    15    1
    21     8    17    1
    22     9    32    1
    23     9    33    1
    24    10    12    1
    25    10    34    1
    26    10    35    1
    27    11    13    1
    28    11    36    1
    29    11    37    1
    30    12    13    1
    31    12    38    1
    32    13    39    1
    33    13    40    1
    34    14    16    1
    35    14    41    1
    36    14    42    1
    37    15    18    1
    38    15    43    1
    39    15    44    1
    40    16    45    1
    41    16    46    1
    42    17    19   ar
    43    18    47    1
    44    18    48    1
    45    19    20   ar
    46    19    49    1
    47    20    23   ar
    48    20    50    1
    49    21    23   ar
    50    21    51    1
    51    22    24    1
    52    22    52    1
    53    22    53    1
    54    23    54    1
    55    24    25   ar
    56    25    26   ar
    57    26    27   ar
    58    26    55    1
    59    27    56    1
    60    28    57    1
    61    28    58    1
    62    28    59    1
@<TRIPOS>MOLECULE
154925832
 59 62 0 0 0
SMALL
GASTEIGER

@<TRIPOS>ATOM
      1 S           3.4607   -0.8344   -2.2685 S.2     1  UNL1       -0.0926
      2 O          -3.4780   -1.7041   -1.1056 O.3     1  UNL1       -0.3732
      3 O          -6.8095   -1.7965    1.6320 O.3     1  UNL1       -0.3917
      4 O           2.2918   -4.1987   -0.7666 O.3     1  UNL1       -0.4941
      5 N          -0.6967    2.0248    0.8212 N.ar    1  UNL1       -0.2593
      6 N           1.9227   -2.1473    1.1614 N.4     1  UNL1        0.2308
      7 C          -3.5817   -1.0970    0.1878 C.3     1  UNL1        0.0728
      8 C          -1.1415   -0.2325   -0.0614 C.3     1  UNL1        0.0224
      9 C          -2.1927   -0.9539    0.8332 C.3     1  UNL1       -0.0123
     10 C          -4.4808   -2.0092    1.0377 C.3     1  UNL1        0.0024
     11 C          -4.4284    0.1820    0.1498 C.3     1  UNL1       -0.0213
     12 C          -5.9002   -1.7207    0.5465 C.3     1  UNL1        0.0580
     13 C          -5.8625   -0.3127   -0.0491 C.3     1  UNL1       -0.0242
     14 C          -1.1858   -0.9535   -1.4364 C.3     1  UNL1       -0.0181
     15 C           0.2670   -0.4668    0.5390 C.3     1  UNL1       -0.0013
     16 C          -2.5969   -1.0429   -2.0073 C.3     1  UNL1        0.0492
     17 C          -1.3476    1.2945   -0.1120 C.ar    1  UNL1        0.0478
     18 C           0.6009   -1.9512    0.5778 C.3     1  UNL1       -0.0325
     19 C          -2.1696    1.8370   -1.0866 C.ar    1  UNL1       -0.0398
     20 C          -2.3341    3.2176   -1.1046 C.ar    1  UNL1       -0.0586
     21 C          -0.8807    3.3631    0.7724 C.ar    1  UNL1        0.0279
     22 C           2.9408   -1.4501    0.3884 C.3     1  UNL1        0.0021
     23 C          -1.6810    4.0023   -0.1607 C.ar    1  UNL1       -0.0436
     24 C           2.9856   -1.9274   -1.0389 C.ar    1  UNL1        0.0756
     25 C           2.6874   -3.1744   -1.5427 C.ar    1  UNL1        0.1353
     26 C           2.8513   -3.2333   -2.9566 C.ar    1  UNL1       -0.0124
     27 C           3.2684   -2.0292   -3.4799 C.ar    1  UNL1       -0.0203
     28 C           1.4108   -5.1713   -1.3461 C.3     1  UNL1        0.0788
     29 H          -6.8125   -2.6984    1.9889 H       1  UNL1        0.2098
     30 H           2.1376   -3.1444    1.1741 H       1  UNL1        0.2017
     31 H           1.9192   -1.7714    2.1097 H       1  UNL1        0.2017
     32 H          -1.8254   -1.9333    1.0585 H       1  UNL1        0.0302
     33 H          -2.3210   -0.3471    1.7051 H       1  UNL1        0.0302
     34 H          -4.3853   -1.7715    2.0766 H       1  UNL1        0.0318
     35 H          -4.2197   -3.0421    0.9381 H       1  UNL1        0.0318
     36 H          -4.1288    0.8097   -0.6633 H       1  UNL1        0.0294
     37 H          -4.3200    0.7679    1.0386 H       1  UNL1        0.0294
     38 H          -6.2264   -2.4315   -0.1837 H       1  UNL1        0.0594
     39 H          -6.1063   -0.3414   -1.0906 H       1  UNL1        0.0291
     40 H          -6.5727    0.3346    0.4216 H       1  UNL1        0.0291
     41 H          -0.8016   -1.9448   -1.3159 H       1  UNL1        0.0296
     42 H          -0.5952   -0.3814   -2.1211 H       1  UNL1        0.0296
     43 H           0.2928   -0.0758    1.5346 H       1  UNL1        0.0326
     44 H           0.9878    0.0297   -0.0764 H       1  UNL1        0.0326
     45 H          -2.9625   -0.0540   -2.1899 H       1  UNL1        0.0560
     46 H          -2.5587   -1.6058   -2.9164 H       1  UNL1        0.0560
     47 H          -0.1281   -2.4635    1.1702 H       1  UNL1        0.0814
     48 H           0.5947   -2.3399   -0.4191 H       1  UNL1        0.0814
     49 H          -2.6448    1.2353   -1.7775 H       1  UNL1        0.0636
     50 H          -2.9386    3.6581   -1.8157 H       1  UNL1        0.0619
     51 H          -0.3952    3.9445    1.4733 H       1  UNL1        0.0829
     52 H           3.8956   -1.6204    0.8403 H       1  UNL1        0.0873
     53 H           2.6975   -0.4081    0.3825 H       1  UNL1        0.0873
     54 H          -1.7889    5.0286   -0.1553 H       1  UNL1        0.0633
     55 H           2.6779   -4.0788   -3.5224 H       1  UNL1        0.0659
     56 H           3.4443   -1.8664   -4.4836 H       1  UNL1        0.0694
     57 H           1.1813   -5.9224   -0.6193 H       1  UNL1        0.0660
     58 H           1.8865   -5.6252   -2.1902 H       1  UNL1        0.0660
     59 H           0.5076   -4.6918   -1.6609 H       1  UNL1        0.0660
@<TRIPOS>UNITY_ATOM_ATTR
6 1
charge 1
@<TRIPOS>BOND
     1     1    24   ar
     2     1    27   ar
     3     2    16    1
     4     3    12    1
     5     3    29    1
     6     4    25    1
     7     4    28    1
     8     5    17   ar
     9     5    21   ar
    10     6    18    1
    11     6    22    1
    12     6    30    1
    13     6    31    1
    14     7     2    1
    15     7     9    1
    16     7    10    1
    17     7    11    1
    18     8     9    1
    19     8    14    1
    20     8    15    1
    21     8    17    1
    22     9    32    1
    23     9    33    1
    24    10    12    1
    25    10    34    1
    26    10    35    1
    27    11    13    1
    28    11    36    1
    29    11    37    1
    30    12    13    1
    31    12    38    1
    32    13    39    1
    33    13    40    1
    34    14    16    1
    35    14    41    1
    36    14    42    1
    37    15    18    1
    38    15    43    1
    39    15    44    1
    40    16    45    1
    41    16    46    1
    42    17    19   ar
    43    18    47    1
    44    18    48    1
    45    19    20   ar
    46    19    49    1
    47    20    23   ar
    48    20    50    1
    49    21    23   ar
    50    21    51    1
    51    22    24    1
    52    22    52    1
    53    22    53    1
    54    23    54    1
    55    24    25   ar
    56    25    26   ar
    57    26    27   ar
    58    26    55    1
    59    27    56    1
    60    28    57    1
    61    28    58    1
    62    28    59    1
@<TRIPOS>MOLECULE
154925832
 59 62 0 0 0
SMALL
GASTEIGER

@<TRIPOS>ATOM
      1 S          -0.5696    4.3134    2.0691 S.2     1  UNL1       -0.0926
      2 O          -3.4780   -1.7041   -1.1056 O.3     1  UNL1       -0.3732
      3 O          -6.8095   -1.7965    1.6320 O.3     1  UNL1       -0.3917
      4 O           2.4625    4.4762   -0.3226 O.3     1  UNL1       -0.4941
      5 N          -2.3814    1.7902    0.6045 N.ar    1  UNL1       -0.2593
      6 N           0.0578    1.4996    1.9681 N.4     1  UNL1        0.2308
      7 C          -3.5817   -1.0970    0.1878 C.3     1  UNL1        0.0728
      8 C          -1.1415   -0.2325   -0.0614 C.3     1  UNL1        0.0224
      9 C          -2.1927   -0.9539    0.8332 C.3     1  UNL1       -0.0123
     10 C          -4.4808   -2.0092    1.0377 C.3     1  UNL1        0.0024
     11 C          -4.4284    0.1820    0.1498 C.3     1  UNL1       -0.0213
     12 C          -5.9002   -1.7207    0.5465 C.3     1  UNL1        0.0580
     13 C          -5.8625   -0.3127   -0.0491 C.3     1  UNL1       -0.0242
     14 C          -1.1858   -0.9535   -1.4364 C.3     1  UNL1       -0.0181
     15 C           0.2670   -0.4668    0.5390 C.3     1  UNL1       -0.0013
     16 C          -2.5969   -1.0429   -2.0073 C.3     1  UNL1        0.0492
     17 C          -1.3476    1.2945   -0.1120 C.ar    1  UNL1        0.0478
     18 C           0.3478    0.0706    1.9607 C.3     1  UNL1       -0.0325
     19 C          -0.4864    2.0714   -0.8701 C.ar    1  UNL1       -0.0398
     20 C          -0.6998    3.4452   -0.8943 C.ar    1  UNL1       -0.0586
     21 C          -2.5576    3.1296    0.5569 C.ar    1  UNL1        0.0279
     22 C           1.0015    2.2257    1.1302 C.3     1  UNL1        0.0021
     23 C          -1.7531    3.9923   -0.1700 C.ar    1  UNL1       -0.0436
     24 C           0.7318    3.7070    1.1359 C.ar    1  UNL1        0.0756
     25 C           1.4029    4.7100    0.4715 C.ar    1  UNL1        0.1353
     26 C           0.8414    5.9930    0.7320 C.ar    1  UNL1       -0.0124
     27 C          -0.2375    5.9221    1.5856 C.ar    1  UNL1       -0.0203
     28 C           2.5231    3.2112   -0.9964 C.3     1  UNL1        0.0788
     29 H          -6.8125   -2.6984    1.9889 H       1  UNL1        0.2098
     30 H           0.1231    1.8486    2.9244 H       1  UNL1        0.2017
     31 H          -0.8826    1.6432    1.5999 H       1  UNL1        0.2017
     32 H          -1.8254   -1.9333    1.0585 H       1  UNL1        0.0302
     33 H          -2.3210   -0.3471    1.7051 H       1  UNL1        0.0302
     34 H          -4.3853   -1.7715    2.0766 H       1  UNL1        0.0318
     35 H          -4.2197   -3.0421    0.9381 H       1  UNL1        0.0318
     36 H          -4.1288    0.8097   -0.6633 H       1  UNL1        0.0294
     37 H          -4.3200    0.7679    1.0386 H       1  UNL1        0.0294
     38 H          -6.2264   -2.4315   -0.1837 H       1  UNL1        0.0594
     39 H          -6.1063   -0.3414   -1.0906 H       1  UNL1        0.0291
     40 H          -6.5727    0.3346    0.4216 H       1  UNL1        0.0291
     41 H          -0.8016   -1.9448   -1.3159 H       1  UNL1        0.0296
     42 H          -0.5952   -0.3814   -2.1211 H       1  UNL1        0.0296
     43 H           0.9935    0.0336   -0.0665 H       1  UNL1        0.0326
     44 H           0.4588   -1.5192    0.5600 H       1  UNL1        0.0326
     45 H          -2.9625   -0.0540   -2.1899 H       1  UNL1        0.0560
     46 H          -2.5587   -1.6058   -2.9164 H       1  UNL1        0.0560
     47 H          -0.3656   -0.4394    2.5738 H       1  UNL1        0.0814
     48 H           1.3341   -0.0908    2.3428 H       1  UNL1        0.0814
     49 H           0.2891    1.6438   -1.4000 H       1  UNL1        0.0636
     50 H          -0.0789    4.0563   -1.4475 H       1  UNL1        0.0619
     51 H          -3.3396    3.5346    1.0950 H       1  UNL1        0.0829
     52 H           0.9228    1.8636    0.1263 H       1  UNL1        0.0873
     53 H           1.9844    2.0657    1.5216 H       1  UNL1        0.0873
     54 H          -1.9302    5.0089   -0.1738 H       1  UNL1        0.0633
     55 H           1.2008    6.8723    0.3287 H       1  UNL1        0.0659
     56 H          -0.7815    6.7419    1.8970 H       1  UNL1        0.0694
     57 H           3.4133    3.1646   -1.5883 H       1  UNL1        0.0660
     58 H           1.6675    3.1032   -1.6298 H       1  UNL1        0.0660
     59 H           2.5336    2.4222   -0.2737 H       1  UNL1        0.0660
@<TRIPOS>UNITY_ATOM_ATTR
6 1
charge 1
@<TRIPOS>BOND
     1     1    24   ar
     2     1    27   ar
     3     2    16    1
     4     3    12    1
     5     3    29    1
     6     4    25    1
     7     4    28    1
     8     5    17   ar
     9     5    21   ar
    10     6    18    1
    11     6    22    1
    12     6    30    1
    13     6    31    1
    14     7     2    1
    15     7     9    1
    16     7    10    1
    17     7    11    1
    18     8     9    1
    19     8    14    1
    20     8    15    1
    21     8    17    1
    22     9    32    1
    23     9    33    1
    24    10    12    1
    25    10    34    1
    26    10    35    1
    27    11    13    1
    28    11    36    1
    29    11    37    1
    30    12    13    1
    31    12    38    1
    32    13    39    1
    33    13    40    1
    34    14    16    1
    35    14    41    1
    36    14    42    1
    37    15    18    1
    38    15    43    1
    39    15    44    1
    40    16    45    1
    41    16    46    1
    42    17    19   ar
    43    18    47    1
    44    18    48    1
    45    19    20   ar
    46    19    49    1
    47    20    23   ar
    48    20    50    1
    49    21    23   ar
    50    21    51    1
    51    22    24    1
    52    22    52    1
    53    22    53    1
    54    23    54    1
    55    24    25   ar
    56    25    26   ar
    57    26    27   ar
    58    26    55    1
    59    27    56    1
    60    28    57    1
    61    28    58    1
    62    28    59    1
@<TRIPOS>MOLECULE
154925832
 59 62 0 0 0
SMALL
GASTEIGER

@<TRIPOS>ATOM
      1 S           0.7678    0.0874    6.4360 S.2     1  UNL1       -0.0926
      2 O          -3.4780   -1.7041   -1.1056 O.3     1  UNL1       -0.3732
      3 O          -6.8095   -1.7965    1.6320 O.3     1  UNL1       -0.3917
      4 O          -0.2104   -1.8832    3.2579 O.3     1  UNL1       -0.4941
      5 N          -2.3814    1.7902    0.6045 N.ar    1  UNL1       -0.2593
      6 N           1.6860   -0.1462    2.4978 N.4     1  UNL1        0.2308
      7 C          -3.5817   -1.0970    0.1878 C.3     1  UNL1        0.0728
      8 C          -1.1415   -0.2325   -0.0614 C.3     1  UNL1        0.0224
      9 C          -2.1927   -0.9539    0.8332 C.3     1  UNL1       -0.0123
     10 C          -4.4808   -2.0092    1.0377 C.3     1  UNL1        0.0024
     11 C          -4.4284    0.1820    0.1498 C.3     1  UNL1       -0.0213
     12 C          -5.9002   -1.7207    0.5465 C.3     1  UNL1        0.0580
     13 C          -5.8625   -0.3127   -0.0491 C.3     1  UNL1       -0.0242
     14 C          -1.1858   -0.9535   -1.4364 C.3     1  UNL1       -0.0181
     15 C           0.2670   -0.4668    0.5390 C.3     1  UNL1       -0.0013
     16 C          -2.5969   -1.0429   -2.0073 C.3     1  UNL1        0.0492
     17 C          -1.3476    1.2945   -0.1120 C.ar    1  UNL1        0.0478
     18 C           0.3478    0.0706    1.9607 C.3     1  UNL1       -0.0325
     19 C          -0.4864    2.0714   -0.8701 C.ar    1  UNL1       -0.0398
     20 C          -0.6998    3.4452   -0.8943 C.ar    1  UNL1       -0.0586
     21 C          -2.5576    3.1296    0.5569 C.ar    1  UNL1        0.0279
     22 C           1.7832    0.3454    3.8648 C.3     1  UNL1        0.0021
     23 C          -1.7531    3.9923   -0.1700 C.ar    1  UNL1       -0.0436
     24 C           0.8220   -0.3602    4.7840 C.ar    1  UNL1        0.0756
     25 C          -0.0717   -1.3671    4.4918 C.ar    1  UNL1        0.1353
     26 C          -0.8106   -1.7761    5.6390 C.ar    1  UNL1       -0.0124
     27 C          -0.4537   -1.0666    6.7646 C.ar    1  UNL1       -0.0203
     28 C          -1.5034   -2.3811    2.8863 C.3     1  UNL1        0.0788
     29 H          -6.8125   -2.6984    1.9889 H       1  UNL1        0.2098
     30 H           2.3632    0.3475    1.9164 H       1  UNL1        0.2017
     31 H           1.8790   -1.1478    2.4971 H       1  UNL1        0.2017
     32 H          -1.8254   -1.9333    1.0585 H       1  UNL1        0.0302
     33 H          -2.3210   -0.3471    1.7051 H       1  UNL1        0.0302
     34 H          -4.3853   -1.7715    2.0766 H       1  UNL1        0.0318
     35 H          -4.2197   -3.0421    0.9381 H       1  UNL1        0.0318
     36 H          -4.1288    0.8097   -0.6633 H       1  UNL1        0.0294
     37 H          -4.3200    0.7679    1.0386 H       1  UNL1        0.0294
     38 H          -6.2264   -2.4315   -0.1837 H       1  UNL1        0.0594
     39 H          -6.1063   -0.3414   -1.0906 H       1  UNL1        0.0291
     40 H          -6.5727    0.3346    0.4216 H       1  UNL1        0.0291
     41 H          -0.8016   -1.9448   -1.3159 H       1  UNL1        0.0296
     42 H          -0.5952   -0.3814   -2.1211 H       1  UNL1        0.0296
     43 H           0.9935    0.0336   -0.0665 H       1  UNL1        0.0326
     44 H           0.4588   -1.5192    0.5600 H       1  UNL1        0.0326
     45 H          -2.9625   -0.0540   -2.1899 H       1  UNL1        0.0560
     46 H          -2.5587   -1.6058   -2.9164 H       1  UNL1        0.0560
     47 H           0.1326    1.1188    1.9565 H       1  UNL1        0.0814
     48 H          -0.3647   -0.4424    2.5723 H       1  UNL1        0.0814
     49 H           0.2891    1.6438   -1.4000 H       1  UNL1        0.0636
     50 H          -0.0789    4.0563   -1.4475 H       1  UNL1        0.0619
     51 H          -3.3396    3.5346    1.0950 H       1  UNL1        0.0829
     52 H           1.5637    1.3927    3.8724 H       1  UNL1        0.0873
     53 H           2.7765    0.1574    4.2154 H       1  UNL1        0.0873
     54 H          -1.9302    5.0089   -0.1738 H       1  UNL1        0.0633
     55 H          -1.5289   -2.5170    5.6281 H       1  UNL1        0.0659
     56 H          -0.8730   -1.2134    7.6960 H       1  UNL1        0.0694
     57 H          -1.4661   -2.7587    1.8857 H       1  UNL1        0.0660
     58 H          -2.2203   -1.5888    2.9420 H       1  UNL1        0.0660
     59 H          -1.7883   -3.1674    3.5538 H       1  UNL1        0.0660
@<TRIPOS>UNITY_ATOM_ATTR
6 1
charge 1
@<TRIPOS>BOND
     1     1    24   ar
     2     1    27   ar
     3     2    16    1
     4     3    12    1
     5     3    29    1
     6     4    25    1
     7     4    28    1
     8     5    17   ar
     9     5    21   ar
    10     6    18    1
    11     6    22    1
    12     6    30    1
    13     6    31    1
    14     7     2    1
    15     7     9    1
    16     7    10    1
    17     7    11    1
    18     8     9    1
    19     8    14    1
    20     8    15    1
    21     8    17    1
    22     9    32    1
    23     9    33    1
    24    10    12    1
    25    10    34    1
    26    10    35    1
    27    11    13    1
    28    11    36    1
    29    11    37    1
    30    12    13    1
    31    12    38    1
    32    13    39    1
    33    13    40    1
    34    14    16    1
    35    14    41    1
    36    14    42    1
    37    15    18    1
    38    15    43    1
    39    15    44    1
    40    16    45    1
    41    16    46    1
    42    17    19   ar
    43    18    47    1
    44    18    48    1
    45    19    20   ar
    46    19    49    1
    47    20    23   ar
    48    20    50    1
    49    21    23   ar
    50    21    51    1
    51    22    24    1
    52    22    52    1
    53    22    53    1
    54    23    54    1
    55    24    25   ar
    56    25    26   ar
    57    26    27   ar
    58    26    55    1
    59    27    56    1
    60    28    57    1
    61    28    58    1
    62    28    59    1
@<TRIPOS>MOLECULE
154925832
 59 62 0 0 0
SMALL
GASTEIGER

@<TRIPOS>ATOM
      1 S          -0.3667    0.5556    5.6090 S.2     1  UNL1       -0.0926
      2 O          -3.4780   -1.7041   -1.1056 O.3     1  UNL1       -0.3732
      3 O          -6.8095   -1.7965    1.6320 O.3     1  UNL1       -0.3917
      4 O           1.5714   -2.6187    4.5565 O.3     1  UNL1       -0.4941
      5 N          -1.5809    1.8341   -1.3295 N.ar    1  UNL1       -0.2593
      6 N           1.6860   -0.1462    2.4978 N.4     1  UNL1        0.2308
      7 C          -3.5817   -1.0970    0.1878 C.3     1  UNL1        0.0728
      8 C          -1.1415   -0.2325   -0.0614 C.3     1  UNL1        0.0224
      9 C          -2.1927   -0.9539    0.8332 C.3     1  UNL1       -0.0123
     10 C          -4.4808   -2.0092    1.0377 C.3     1  UNL1        0.0024
     11 C          -4.4284    0.1820    0.1498 C.3     1  UNL1       -0.0213
     12 C          -5.9002   -1.7207    0.5465 C.3     1  UNL1        0.0580
     13 C          -5.8625   -0.3127   -0.0491 C.3     1  UNL1       -0.0242
     14 C          -1.1858   -0.9535   -1.4364 C.3     1  UNL1       -0.0181
     15 C           0.2670   -0.4668    0.5390 C.3     1  UNL1       -0.0013
     16 C          -2.5969   -1.0429   -2.0073 C.3     1  UNL1        0.0492
     17 C          -1.3476    1.2945   -0.1120 C.ar    1  UNL1        0.0478
     18 C           0.3478    0.0706    1.9607 C.3     1  UNL1       -0.0325
     19 C          -1.2863    2.0274    1.0623 C.ar    1  UNL1       -0.0398
     20 C          -1.4765    3.4025    0.9819 C.ar    1  UNL1       -0.0586
     21 C          -1.7610    3.1734   -1.3683 C.ar    1  UNL1        0.0279
     22 C           1.7832    0.3454    3.8648 C.3     1  UNL1        0.0021
     23 C          -1.7188    3.9942   -0.2528 C.ar    1  UNL1       -0.0436
     24 C           0.8220   -0.3602    4.7840 C.ar    1  UNL1        0.0756
     25 C           0.7420   -1.7021    5.0855 C.ar    1  UNL1        0.1353
     26 C          -0.3090   -1.9819    6.0055 C.ar    1  UNL1       -0.0124
     27 C          -0.9924   -0.8435    6.3726 C.ar    1  UNL1       -0.0203
     28 C           2.1009   -2.3611    3.2484 C.3     1  UNL1        0.0788
     29 H          -6.8125   -2.6984    1.9889 H       1  UNL1        0.2098
     30 H           2.3632    0.3475    1.9164 H       1  UNL1        0.2017
     31 H           1.8790   -1.1478    2.4971 H       1  UNL1        0.2017
     32 H          -1.8254   -1.9333    1.0585 H       1  UNL1        0.0302
     33 H          -2.3210   -0.3471    1.7051 H       1  UNL1        0.0302
     34 H          -4.3853   -1.7715    2.0766 H       1  UNL1        0.0318
     35 H          -4.2197   -3.0421    0.9381 H       1  UNL1        0.0318
     36 H          -4.1288    0.8097   -0.6633 H       1  UNL1        0.0294
     37 H          -4.3200    0.7679    1.0386 H       1  UNL1        0.0294
     38 H          -6.2264   -2.4315   -0.1837 H       1  UNL1        0.0594
     39 H          -6.1063   -0.3414   -1.0906 H       1  UNL1        0.0291
     40 H          -6.5727    0.3346    0.4216 H       1  UNL1        0.0291
     41 H          -0.8016   -1.9448   -1.3159 H       1  UNL1        0.0296
     42 H          -0.5952   -0.3814   -2.1211 H       1  UNL1        0.0296
     43 H           0.9935    0.0336   -0.0665 H       1  UNL1        0.0326
     44 H           0.4588   -1.5192    0.5600 H       1  UNL1        0.0326
     45 H          -2.9625   -0.0540   -2.1899 H       1  UNL1        0.0560
     46 H          -2.5587   -1.6058   -2.9164 H       1  UNL1        0.0560
     47 H           0.1326    1.1188    1.9565 H       1  UNL1        0.0814
     48 H          -0.3647   -0.4424    2.5723 H       1  UNL1        0.0814
     49 H          -1.1050    1.5672    1.9681 H       1  UNL1        0.0636
     50 H          -1.4382    3.9816    1.8353 H       1  UNL1        0.0619
     51 H          -1.9410    3.6113   -2.2852 H       1  UNL1        0.0829
     52 H           1.5637    1.3927    3.8724 H       1  UNL1        0.0873
     53 H           2.7765    0.1574    4.2154 H       1  UNL1        0.0873
     54 H          -1.8627    5.0127   -0.3358 H       1  UNL1        0.0633
     55 H          -0.5321   -2.9266    6.3559 H       1  UNL1        0.0659
     56 H          -1.7876   -0.8349    7.0302 H       1  UNL1        0.0694
     57 H           2.7400   -3.1683    2.9570 H       1  UNL1        0.0660
     58 H           2.6616   -1.4499    3.2637 H       1  UNL1        0.0660
     59 H           1.2961   -2.2729    2.5488 H       1  UNL1        0.0660
@<TRIPOS>UNITY_ATOM_ATTR
6 1
charge 1
@<TRIPOS>BOND
     1     1    24   ar
     2     1    27   ar
     3     2    16    1
     4     3    12    1
     5     3    29    1
     6     4    25    1
     7     4    28    1
     8     5    17   ar
     9     5    21   ar
    10     6    18    1
    11     6    22    1
    12     6    30    1
    13     6    31    1
    14     7     2    1
    15     7     9    1
    16     7    10    1
    17     7    11    1
    18     8     9    1
    19     8    14    1
    20     8    15    1
    21     8    17    1
    22     9    32    1
    23     9    33    1
    24    10    12    1
    25    10    34    1
    26    10    35    1
    27    11    13    1
    28    11    36    1
    29    11    37    1
    30    12    13    1
    31    12    38    1
    32    13    39    1
    33    13    40    1
    34    14    16    1
    35    14    41    1
    36    14    42    1
    37    15    18    1
    38    15    43    1
    39    15    44    1
    40    16    45    1
    41    16    46    1
    42    17    19   ar
    43    18    47    1
    44    18    48    1
    45    19    20   ar
    46    19    49    1
    47    20    23   ar
    48    20    50    1
    49    21    23   ar
    50    21    51    1
    51    22    24    1
    52    22    52    1
    53    22    53    1
    54    23    54    1
    55    24    25   ar
    56    25    26   ar
    57    26    27   ar
    58    26    55    1
    59    27    56    1
    60    28    57    1
    61    28    58    1
    62    28    59    1
@<TRIPOS>MOLECULE
154925832
 59 62 0 0 0
SMALL
GASTEIGER

@<TRIPOS>ATOM
      1 S           4.0810   -1.4133   -2.2424 S.2     1  UNL1       -0.0926
      2 O          -3.4780   -1.7041   -1.1056 O.3     1  UNL1       -0.3732
      3 O          -6.8095   -1.7965    1.6320 O.3     1  UNL1       -0.3917
      4 O           1.2229   -3.6466   -0.9067 O.3     1  UNL1       -0.4941
      5 N          -0.4848    1.9970   -0.8800 N.ar    1  UNL1       -0.2593
      6 N           2.6511   -0.0149    0.2847 N.4     1  UNL1        0.2308
      7 C          -3.5817   -1.0970    0.1878 C.3     1  UNL1        0.0728
      8 C          -1.1415   -0.2325   -0.0614 C.3     1  UNL1        0.0224
      9 C          -2.1927   -0.9539    0.8332 C.3     1  UNL1       -0.0123
     10 C          -4.4808   -2.0092    1.0377 C.3     1  UNL1        0.0024
     11 C          -4.4284    0.1820    0.1498 C.3     1  UNL1       -0.0213
     12 C          -5.9002   -1.7207    0.5465 C.3     1  UNL1        0.0580
     13 C          -5.8625   -0.3127   -0.0491 C.3     1  UNL1       -0.0242
     14 C          -1.1858   -0.9535   -1.4364 C.3     1  UNL1       -0.0181
     15 C           0.2670   -0.4668    0.5390 C.3     1  UNL1       -0.0013
     16 C          -2.5969   -1.0429   -2.0073 C.3     1  UNL1        0.0492
     17 C          -1.3476    1.2945   -0.1120 C.ar    1  UNL1        0.0478
     18 C           1.3342    0.2337   -0.2898 C.3     1  UNL1       -0.0325
     19 C          -2.3814    1.8648    0.6132 C.ar    1  UNL1       -0.0398
     20 C          -2.5399    3.2445    0.5458 C.ar    1  UNL1       -0.0586
     21 C          -0.6699    3.3355   -0.9210 C.ar    1  UNL1        0.0279
     22 C           2.9533   -1.4392    0.2945 C.3     1  UNL1        0.0021
     23 C          -1.6719    4.0012   -0.2335 C.ar    1  UNL1       -0.0436
     24 C           2.9641   -2.0196   -1.0947 C.ar    1  UNL1        0.0756
     25 C           2.1729   -3.0173   -1.6205 C.ar    1  UNL1        0.1353
     26 C           2.4879   -3.2875   -2.9832 C.ar    1  UNL1       -0.0124
     27 C           3.5077   -2.4862   -3.4475 C.ar    1  UNL1       -0.0203
     28 C           0.0735   -4.1345   -1.6129 C.3     1  UNL1        0.0788
     29 H          -6.8125   -2.6984    1.9889 H       1  UNL1        0.2098
     30 H           2.6698    0.3370    1.2420 H       1  UNL1        0.2017
     31 H           3.3503    0.4627   -0.2841 H       1  UNL1        0.2017
     32 H          -1.8254   -1.9333    1.0585 H       1  UNL1        0.0302
     33 H          -2.3210   -0.3471    1.7051 H       1  UNL1        0.0302
     34 H          -4.3853   -1.7715    2.0766 H       1  UNL1        0.0318
     35 H          -4.2197   -3.0421    0.9381 H       1  UNL1        0.0318
     36 H          -4.1288    0.8097   -0.6633 H       1  UNL1        0.0294
     37 H          -4.3200    0.7679    1.0386 H       1  UNL1        0.0294
     38 H          -6.2264   -2.4315   -0.1837 H       1  UNL1        0.0594
     39 H          -6.1063   -0.3414   -1.0906 H       1  UNL1        0.0291
     40 H          -6.5727    0.3346    0.4216 H       1  UNL1        0.0291
     41 H          -0.8016   -1.9448   -1.3159 H       1  UNL1        0.0296
     42 H          -0.5952   -0.3814   -2.1211 H       1  UNL1        0.0296
     43 H           0.4702   -1.5172    0.5562 H       1  UNL1        0.0326
     44 H           0.2867   -0.0660    1.5309 H       1  UNL1        0.0326
     45 H          -2.9625   -0.0540   -2.1899 H       1  UNL1        0.0560
     46 H          -2.5587   -1.6058   -2.9164 H       1  UNL1        0.0560
     47 H           1.3078   -0.1407   -1.2918 H       1  UNL1        0.0814
     48 H           1.1438    1.2866   -0.2920 H       1  UNL1        0.0814
     49 H          -3.0139    1.2836    1.1854 H       1  UNL1        0.0636
     50 H          -3.2987    3.7052    1.0722 H       1  UNL1        0.0619
     51 H          -0.0252    3.8959   -1.5001 H       1  UNL1        0.0829
     52 H           2.2117   -1.9464    0.8757 H       1  UNL1        0.0873
     53 H           3.9283   -1.5689    0.7161 H       1  UNL1        0.0873
     54 H          -1.7708    5.0263   -0.2979 H       1  UNL1        0.0633
     55 H           2.0083   -3.9999   -3.5555 H       1  UNL1        0.0659
     56 H           3.8821   -2.5276   -4.4082 H       1  UNL1        0.0694
     57 H          -0.5935   -4.6091   -0.9238 H       1  UNL1        0.0660
     58 H           0.3837   -4.8416   -2.3536 H       1  UNL1        0.0660
     59 H          -0.4270   -3.3167   -2.0879 H       1  UNL1        0.0660
@<TRIPOS>UNITY_ATOM_ATTR
6 1
charge 1
@<TRIPOS>BOND
     1     1    24   ar
     2     1    27   ar
     3     2    16    1
     4     3    12    1
     5     3    29    1
     6     4    25    1
     7     4    28    1
     8     5    17   ar
     9     5    21   ar
    10     6    18    1
    11     6    22    1
    12     6    30    1
    13     6    31    1
    14     7     2    1
    15     7     9    1
    16     7    10    1
    17     7    11    1
    18     8     9    1
    19     8    14    1
    20     8    15    1
    21     8    17    1
    22     9    32    1
    23     9    33    1
    24    10    12    1
    25    10    34    1
    26    10    35    1
    27    11    13    1
    28    11    36    1
    29    11    37    1
    30    12    13    1
    31    12    38    1
    32    13    39    1
    33    13    40    1
    34    14    16    1
    35    14    41    1
    36    14    42    1
    37    15    18    1
    38    15    43    1
    39    15    44    1
    40    16    45    1
    41    16    46    1
    42    17    19   ar
    43    18    47    1
    44    18    48    1
    45    19    20   ar
    46    19    49    1
    47    20    23   ar
    48    20    50    1
    49    21    23   ar
    50    21    51    1
    51    22    24    1
    52    22    52    1
    53    22    53    1
    54    23    54    1
    55    24    25   ar
    56    25    26   ar
    57    26    27   ar
    58    26    55    1
    59    27    56    1
    60    28    57    1
    61    28    58    1
    62    28    59    1
@<TRIPOS>MOLECULE
154925832
 59 62 0 0 0
SMALL
GASTEIGER

@<TRIPOS>ATOM
      1 S           3.8625    2.7072    0.9591 S.2     1  UNL1       -0.0926
      2 O          -3.4780   -1.7041   -1.1056 O.3     1  UNL1       -0.3732
      3 O          -6.8095   -1.7965    1.6320 O.3     1  UNL1       -0.3917
      4 O           1.8584    0.6918    3.5787 O.3     1  UNL1       -0.4941
      5 N          -1.5809    1.8341   -1.3295 N.ar    1  UNL1       -0.2593
      6 N           1.0858    1.6705   -0.3064 N.4     1  UNL1        0.2308
      7 C          -3.5817   -1.0970    0.1878 C.3     1  UNL1        0.0728
      8 C          -1.1415   -0.2325   -0.0614 C.3     1  UNL1        0.0224
      9 C          -2.1927   -0.9539    0.8332 C.3     1  UNL1       -0.0123
     10 C          -4.4808   -2.0092    1.0377 C.3     1  UNL1        0.0024
     11 C          -4.4284    0.1820    0.1498 C.3     1  UNL1       -0.0213
     12 C          -5.9002   -1.7207    0.5465 C.3     1  UNL1        0.0580
     13 C          -5.8625   -0.3127   -0.0491 C.3     1  UNL1       -0.0242
     14 C          -1.1858   -0.9535   -1.4364 C.3     1  UNL1       -0.0181
     15 C           0.2670   -0.4668    0.5390 C.3     1  UNL1       -0.0013
     16 C          -2.5969   -1.0429   -2.0073 C.3     1  UNL1        0.0492
     17 C          -1.3476    1.2945   -0.1120 C.ar    1  UNL1        0.0478
     18 C           1.3342    0.2337   -0.2898 C.3     1  UNL1       -0.0325
     19 C          -1.2863    2.0274    1.0623 C.ar    1  UNL1       -0.0398
     20 C          -1.4765    3.4025    0.9819 C.ar    1  UNL1       -0.0586
     21 C          -1.7610    3.1734   -1.3683 C.ar    1  UNL1        0.0279
     22 C           1.1302    2.2211    1.0408 C.3     1  UNL1        0.0021
     23 C          -1.7188    3.9942   -0.2528 C.ar    1  UNL1       -0.0436
     24 C           2.4749    2.0159    1.6862 C.ar    1  UNL1        0.0756
     25 C           2.7852    1.3199    2.8340 C.ar    1  UNL1        0.1353
     26 C           4.1803    1.3549    3.1201 C.ar    1  UNL1       -0.0124
     27 C           4.8835    2.0761    2.1803 C.ar    1  UNL1       -0.0203
     28 C           2.0969    0.5878    4.9894 C.3     1  UNL1        0.0788
     29 H          -6.8125   -2.6984    1.9889 H       1  UNL1        0.2098
     30 H           0.1649    1.8456   -0.7085 H       1  UNL1        0.2017
     31 H           1.8104    2.1200   -0.8662 H       1  UNL1        0.2017
     32 H          -1.8254   -1.9333    1.0585 H       1  UNL1        0.0302
     33 H          -2.3210   -0.3471    1.7051 H       1  UNL1        0.0302
     34 H          -4.3853   -1.7715    2.0766 H       1  UNL1        0.0318
     35 H          -4.2197   -3.0421    0.9381 H       1  UNL1        0.0318
     36 H          -4.1288    0.8097   -0.6633 H       1  UNL1        0.0294
     37 H          -4.3200    0.7679    1.0386 H       1  UNL1        0.0294
     38 H          -6.2264   -2.4315   -0.1837 H       1  UNL1        0.0594
     39 H          -6.1063   -0.3414   -1.0906 H       1  UNL1        0.0291
     40 H          -6.5727    0.3346    0.4216 H       1  UNL1        0.0291
     41 H          -0.8016   -1.9448   -1.3159 H       1  UNL1        0.0296
     42 H          -0.5952   -0.3814   -2.1211 H       1  UNL1        0.0296
     43 H           0.4702   -1.5172    0.5562 H       1  UNL1        0.0326
     44 H           0.2867   -0.0660    1.5309 H       1  UNL1        0.0326
     45 H          -2.9625   -0.0540   -2.1899 H       1  UNL1        0.0560
     46 H          -2.5587   -1.6058   -2.9164 H       1  UNL1        0.0560
     47 H           2.2966    0.0449    0.1383 H       1  UNL1        0.0814
     48 H           1.3043   -0.1406   -1.2917 H       1  UNL1        0.0814
     49 H          -1.1050    1.5672    1.9681 H       1  UNL1        0.0636
     50 H          -1.4382    3.9816    1.8353 H       1  UNL1        0.0619
     51 H          -1.9410    3.6113   -2.2852 H       1  UNL1        0.0829
     52 H           0.3833    1.7392    1.6365 H       1  UNL1        0.0873
     53 H           0.9507    3.2739    0.9752 H       1  UNL1        0.0873
     54 H          -1.8627    5.0127   -0.3358 H       1  UNL1        0.0633
     55 H           4.6133    0.8941    3.9356 H       1  UNL1        0.0659
     56 H           5.9051    2.2192    2.2089 H       1  UNL1        0.0694
     57 H           1.2834    0.0683    5.4513 H       1  UNL1        0.0660
     58 H           2.1791    1.5680    5.4104 H       1  UNL1        0.0660
     59 H           3.0060    0.0495    5.1588 H       1  UNL1        0.0660
@<TRIPOS>UNITY_ATOM_ATTR
6 1
charge 1
@<TRIPOS>BOND
     1     1    24   ar
     2     1    27   ar
     3     2    16    1
     4     3    12    1
     5     3    29    1
     6     4    25    1
     7     4    28    1
     8     5    17   ar
     9     5    21   ar
    10     6    18    1
    11     6    22    1
    12     6    30    1
    13     6    31    1
    14     7     2    1
    15     7     9    1
    16     7    10    1
    17     7    11    1
    18     8     9    1
    19     8    14    1
    20     8    15    1
    21     8    17    1
    22     9    32    1
    23     9    33    1
    24    10    12    1
    25    10    34    1
    26    10    35    1
    27    11    13    1
    28    11    36    1
    29    11    37    1
    30    12    13    1
    31    12    38    1
    32    13    39    1
    33    13    40    1
    34    14    16    1
    35    14    41    1
    36    14    42    1
    37    15    18    1
    38    15    43    1
    39    15    44    1
    40    16    45    1
    41    16    46    1
    42    17    19   ar
    43    18    47    1
    44    18    48    1
    45    19    20   ar
    46    19    49    1
    47    20    23   ar
    48    20    50    1
    49    21    23   ar
    50    21    51    1
    51    22    24    1
    52    22    52    1
    53    22    53    1
    54    23    54    1
    55    24    25   ar
    56    25    26   ar
    57    26    27   ar
    58    26    55    1
    59    27    56    1
    60    28    57    1
    61    28    58    1
    62    28    59    1
@<TRIPOS>MOLECULE
154925832
 59 62 0 0 0
SMALL
GASTEIGER

@<TRIPOS>ATOM
      1 S           4.7931    2.1379   -1.6813 S.2     1  UNL1       -0.0926
      2 O          -3.4780   -1.7041   -1.1056 O.3     1  UNL1       -0.3732
      3 O          -6.8095   -1.7965    1.6320 O.3     1  UNL1       -0.3917
      4 O           3.0340    1.8674    1.7498 O.3     1  UNL1       -0.4941
      5 N          -2.1487    1.7653   -1.0941 N.ar    1  UNL1       -0.2593
      6 N           1.0858    1.6705   -0.3064 N.4     1  UNL1        0.2308
      7 C          -3.5817   -1.0970    0.1878 C.3     1  UNL1        0.0728
      8 C          -1.1415   -0.2325   -0.0614 C.3     1  UNL1        0.0224
      9 C          -2.1927   -0.9539    0.8332 C.3     1  UNL1       -0.0123
     10 C          -4.4808   -2.0092    1.0377 C.3     1  UNL1        0.0024
     11 C          -4.4284    0.1820    0.1498 C.3     1  UNL1       -0.0213
     12 C          -5.9002   -1.7207    0.5465 C.3     1  UNL1        0.0580
     13 C          -5.8625   -0.3127   -0.0491 C.3     1  UNL1       -0.0242
     14 C          -1.1858   -0.9535   -1.4364 C.3     1  UNL1       -0.0181
     15 C           0.2670   -0.4668    0.5390 C.3     1  UNL1       -0.0013
     16 C          -2.5969   -1.0429   -2.0073 C.3     1  UNL1        0.0492
     17 C          -1.3476    1.2945   -0.1120 C.ar    1  UNL1        0.0478
     18 C           1.3342    0.2337   -0.2898 C.3     1  UNL1       -0.0325
     19 C          -0.7189    2.0962    0.8271 C.ar    1  UNL1       -0.0398
     20 C          -0.9257    3.4693    0.7536 C.ar    1  UNL1       -0.0586
     21 C          -2.3261    3.1049   -1.1339 C.ar    1  UNL1        0.0279
     22 C           2.0858    2.3615   -1.1080 C.3     1  UNL1        0.0021
     23 C          -1.7431    3.9912   -0.2427 C.ar    1  UNL1       -0.0436
     24 C           3.4789    2.1349   -0.5837 C.ar    1  UNL1        0.0756
     25 C           3.8886    1.9119    0.7126 C.ar    1  UNL1        0.1353
     26 C           5.2998    1.7415    0.8058 C.ar    1  UNL1       -0.0124
     27 C           5.9153    1.8405   -0.4227 C.ar    1  UNL1       -0.0203
     28 C           3.5198    2.2915    3.0312 C.3     1  UNL1        0.0788
     29 H          -6.8125   -2.6984    1.9889 H       1  UNL1        0.2098
     30 H           1.1196    2.0263    0.6490 H       1  UNL1        0.2017
     31 H           0.1670    1.8376   -0.7166 H       1  UNL1        0.2017
     32 H          -1.8254   -1.9333    1.0585 H       1  UNL1        0.0302
     33 H          -2.3210   -0.3471    1.7051 H       1  UNL1        0.0302
     34 H          -4.3853   -1.7715    2.0766 H       1  UNL1        0.0318
     35 H          -4.2197   -3.0421    0.9381 H       1  UNL1        0.0318
     36 H          -4.1288    0.8097   -0.6633 H       1  UNL1        0.0294
     37 H          -4.3200    0.7679    1.0386 H       1  UNL1        0.0294
     38 H          -6.2264   -2.4315   -0.1837 H       1  UNL1        0.0594
     39 H          -6.1063   -0.3414   -1.0906 H       1  UNL1        0.0291
     40 H          -6.5727    0.3346    0.4216 H       1  UNL1        0.0291
     41 H          -0.8016   -1.9448   -1.3159 H       1  UNL1        0.0296
     42 H          -0.5952   -0.3814   -2.1211 H       1  UNL1        0.0296
     43 H           0.4702   -1.5172    0.5562 H       1  UNL1        0.0326
     44 H           0.2867   -0.0660    1.5309 H       1  UNL1        0.0326
     45 H          -2.9625   -0.0540   -2.1899 H       1  UNL1        0.0560
     46 H          -2.5587   -1.6058   -2.9164 H       1  UNL1        0.0560
     47 H           2.2966    0.0449    0.1383 H       1  UNL1        0.0814
     48 H           1.3043   -0.1406   -1.2917 H       1  UNL1        0.0814
     49 H          -0.1162    1.6871    1.5581 H       1  UNL1        0.0636
     50 H          -0.4743    4.0985    1.4358 H       1  UNL1        0.0619
     51 H          -2.9333    3.4911   -1.8737 H       1  UNL1        0.0829
     52 H           1.8768    3.4108   -1.0929 H       1  UNL1        0.0873
     53 H           2.0388    1.9734   -2.1041 H       1  UNL1        0.0873
     54 H          -1.9103    5.0069   -0.3162 H       1  UNL1        0.0633
     55 H           5.8021    1.5646    1.6897 H       1  UNL1        0.0659
     56 H           6.9328    1.7466   -0.5674 H       1  UNL1        0.0694
     57 H           2.7378    2.2029    3.7562 H       1  UNL1        0.0660
     58 H           3.8378    3.3114    2.9723 H       1  UNL1        0.0660
     59 H           4.3460    1.6764    3.3208 H       1  UNL1        0.0660
@<TRIPOS>UNITY_ATOM_ATTR
6 1
charge 1
@<TRIPOS>BOND
     1     1    24   ar
     2     1    27   ar
     3     2    16    1
     4     3    12    1
     5     3    29    1
     6     4    25    1
     7     4    28    1
     8     5    17   ar
     9     5    21   ar
    10     6    18    1
    11     6    22    1
    12     6    30    1
    13     6    31    1
    14     7     2    1
    15     7     9    1
    16     7    10    1
    17     7    11    1
    18     8     9    1
    19     8    14    1
    20     8    15    1
    21     8    17    1
    22     9    32    1
    23     9    33    1
    24    10    12    1
    25    10    34    1
    26    10    35    1
    27    11    13    1
    28    11    36    1
    29    11    37    1
    30    12    13    1
    31    12    38    1
    32    13    39    1
    33    13    40    1
    34    14    16    1
    35    14    41    1
    36    14    42    1
    37    15    18    1
    38    15    43    1
    39    15    44    1
    40    16    45    1
    41    16    46    1
    42    17    19   ar
    43    18    47    1
    44    18    48    1
    45    19    20   ar
    46    19    49    1
    47    20    23   ar
    48    20    50    1
    49    21    23   ar
    50    21    51    1
    51    22    24    1
    52    22    52    1
    53    22    53    1
    54    23    54    1
    55    24    25   ar
    56    25    26   ar
    57    26    27   ar
    58    26    55    1
    59    27    56    1
    60    28    57    1
    61    28    58    1
    62    28    59    1
@<TRIPOS>MOLECULE
154925832
 59 62 0 0 0
SMALL
GASTEIGER

@<TRIPOS>ATOM
      1 S          -0.0737   -5.0459    1.2066 S.2     1  UNL1       -0.0926
      2 O          -3.4780   -1.7041   -1.1056 O.3     1  UNL1       -0.3732
      3 O          -6.8095   -1.7965    1.6320 O.3     1  UNL1       -0.3917
      4 O           2.2666   -4.2264    4.1717 O.3     1  UNL1       -0.4941
      5 N          -0.4848    1.9970   -0.8800 N.ar    1  UNL1       -0.2593
      6 N           1.9227   -2.1473    1.1614 N.4     1  UNL1        0.2308
      7 C          -3.5817   -1.0970    0.1878 C.3     1  UNL1        0.0728
      8 C          -1.1415   -0.2325   -0.0614 C.3     1  UNL1        0.0224
      9 C          -2.1927   -0.9539    0.8332 C.3     1  UNL1       -0.0123
     10 C          -4.4808   -2.0092    1.0377 C.3     1  UNL1        0.0024
     11 C          -4.4284    0.1820    0.1498 C.3     1  UNL1       -0.0213
     12 C          -5.9002   -1.7207    0.5465 C.3     1  UNL1        0.0580
     13 C          -5.8625   -0.3127   -0.0491 C.3     1  UNL1       -0.0242
     14 C          -1.1858   -0.9535   -1.4364 C.3     1  UNL1       -0.0181
     15 C           0.2670   -0.4668    0.5390 C.3     1  UNL1       -0.0013
     16 C          -2.5969   -1.0429   -2.0073 C.3     1  UNL1        0.0492
     17 C          -1.3476    1.2945   -0.1120 C.ar    1  UNL1        0.0478
     18 C           0.6009   -1.9512    0.5778 C.3     1  UNL1       -0.0325
     19 C          -2.3814    1.8648    0.6132 C.ar    1  UNL1       -0.0398
     20 C          -2.5399    3.2445    0.5458 C.ar    1  UNL1       -0.0586
     21 C          -0.6699    3.3355   -0.9210 C.ar    1  UNL1        0.0279
     22 C           2.2719   -3.5605    1.1941 C.3     1  UNL1        0.0021
     23 C          -1.6719    4.0012   -0.2335 C.ar    1  UNL1       -0.0436
     24 C           1.2836   -4.3638    1.9970 C.ar    1  UNL1        0.0756
     25 C           1.2970   -4.6535    3.3438 C.ar    1  UNL1        0.1353
     26 C           0.1786   -5.4460    3.7316 C.ar    1  UNL1       -0.0124
     27 C          -0.6474   -5.7319    2.6668 C.ar    1  UNL1       -0.0203
     28 C           2.5867   -5.0492    5.3024 C.3     1  UNL1        0.0788
     29 H          -6.8125   -2.6984    1.9889 H       1  UNL1        0.2098
     30 H           1.9253   -1.7807    2.1133 H       1  UNL1        0.2017
     31 H           2.6083   -1.6554    0.5883 H       1  UNL1        0.2017
     32 H          -1.8254   -1.9333    1.0585 H       1  UNL1        0.0302
     33 H          -2.3210   -0.3471    1.7051 H       1  UNL1        0.0302
     34 H          -4.3853   -1.7715    2.0766 H       1  UNL1        0.0318
     35 H          -4.2197   -3.0421    0.9381 H       1  UNL1        0.0318
     36 H          -4.1288    0.8097   -0.6633 H       1  UNL1        0.0294
     37 H          -4.3200    0.7679    1.0386 H       1  UNL1        0.0294
     38 H          -6.2264   -2.4315   -0.1837 H       1  UNL1        0.0594
     39 H          -6.1063   -0.3414   -1.0906 H       1  UNL1        0.0291
     40 H          -6.5727    0.3346    0.4216 H       1  UNL1        0.0291
     41 H          -0.8016   -1.9448   -1.3159 H       1  UNL1        0.0296
     42 H          -0.5952   -0.3814   -2.1211 H       1  UNL1        0.0296
     43 H           0.2928   -0.0758    1.5346 H       1  UNL1        0.0326
     44 H           0.9878    0.0297   -0.0764 H       1  UNL1        0.0326
     45 H          -2.9625   -0.0540   -2.1899 H       1  UNL1        0.0560
     46 H          -2.5587   -1.6058   -2.9164 H       1  UNL1        0.0560
     47 H          -0.1281   -2.4635    1.1702 H       1  UNL1        0.0814
     48 H           0.5947   -2.3399   -0.4191 H       1  UNL1        0.0814
     49 H          -3.0139    1.2836    1.1854 H       1  UNL1        0.0636
     50 H          -3.2987    3.7052    1.0722 H       1  UNL1        0.0619
     51 H          -0.0252    3.8959   -1.5001 H       1  UNL1        0.0829
     52 H           3.2421   -3.6673    1.6326 H       1  UNL1        0.0873
     53 H           2.2605   -3.9286    0.1894 H       1  UNL1        0.0873
     54 H          -1.7708    5.0263   -0.2979 H       1  UNL1        0.0633
     55 H           0.0073   -5.7682    4.6970 H       1  UNL1        0.0659
     56 H          -1.5101   -6.2933    2.7405 H       1  UNL1        0.0694
     57 H           3.3696   -4.5888    5.8682 H       1  UNL1        0.0660
     58 H           2.9098   -6.0112    4.9634 H       1  UNL1        0.0660
     59 H           1.7194   -5.1611    5.9190 H       1  UNL1        0.0660
@<TRIPOS>UNITY_ATOM_ATTR
6 1
charge 1
@<TRIPOS>BOND
     1     1    24   ar
     2     1    27   ar
     3     2    16    1
     4     3    12    1
     5     3    29    1
     6     4    25    1
     7     4    28    1
     8     5    17   ar
     9     5    21   ar
    10     6    18    1
    11     6    22    1
    12     6    30    1
    13     6    31    1
    14     7     2    1
    15     7     9    1
    16     7    10    1
    17     7    11    1
    18     8     9    1
    19     8    14    1
    20     8    15    1
    21     8    17    1
    22     9    32    1
    23     9    33    1
    24    10    12    1
    25    10    34    1
    26    10    35    1
    27    11    13    1
    28    11    36    1
    29    11    37    1
    30    12    13    1
    31    12    38    1
    32    13    39    1
    33    13    40    1
    34    14    16    1
    35    14    41    1
    36    14    42    1
    37    15    18    1
    38    15    43    1
    39    15    44    1
    40    16    45    1
    41    16    46    1
    42    17    19   ar
    43    18    47    1
    44    18    48    1
    45    19    20   ar
    46    19    49    1
    47    20    23   ar
    48    20    50    1
    49    21    23   ar
    50    21    51    1
    51    22    24    1
    52    22    52    1
    53    22    53    1
    54    23    54    1
    55    24    25   ar
    56    25    26   ar
    57    26    27   ar
    58    26    55    1
    59    27    56    1
    60    28    57    1
    61    28    58    1
    62    28    59    1
@<TRIPOS>MOLECULE
154925832
 59 62 0 0 0
SMALL
GASTEIGER

@<TRIPOS>ATOM
      1 S           2.7364    1.1076    2.9645 S.2     1  UNL1       -0.0926
      2 O          -3.4780   -1.7041   -1.1056 O.3     1  UNL1       -0.3732
      3 O          -6.8095   -1.7965    1.6320 O.3     1  UNL1       -0.3917
      4 O           1.2161    2.8672    6.0521 O.3     1  UNL1       -0.4941
      5 N          -2.3814    1.7902    0.6045 N.ar    1  UNL1       -0.2593
      6 N           0.0578    1.4996    1.9681 N.4     1  UNL1        0.2308
      7 C          -3.5817   -1.0970    0.1878 C.3     1  UNL1        0.0728
      8 C          -1.1415   -0.2325   -0.0614 C.3     1  UNL1        0.0224
      9 C          -2.1927   -0.9539    0.8332 C.3     1  UNL1       -0.0123
     10 C          -4.4808   -2.0092    1.0377 C.3     1  UNL1        0.0024
     11 C          -4.4284    0.1820    0.1498 C.3     1  UNL1       -0.0213
     12 C          -5.9002   -1.7207    0.5465 C.3     1  UNL1        0.0580
     13 C          -5.8625   -0.3127   -0.0491 C.3     1  UNL1       -0.0242
     14 C          -1.1858   -0.9535   -1.4364 C.3     1  UNL1       -0.0181
     15 C           0.2670   -0.4668    0.5390 C.3     1  UNL1       -0.0013
     16 C          -2.5969   -1.0429   -2.0073 C.3     1  UNL1        0.0492
     17 C          -1.3476    1.2945   -0.1120 C.ar    1  UNL1        0.0478
     18 C           0.3478    0.0706    1.9607 C.3     1  UNL1       -0.0325
     19 C          -0.4864    2.0714   -0.8701 C.ar    1  UNL1       -0.0398
     20 C          -0.6998    3.4452   -0.8943 C.ar    1  UNL1       -0.0586
     21 C          -2.5576    3.1296    0.5569 C.ar    1  UNL1        0.0279
     22 C           0.1453    2.0406    3.3171 C.3     1  UNL1        0.0021
     23 C          -1.7531    3.9923   -0.1700 C.ar    1  UNL1       -0.0436
     24 C           1.5223    1.8694    3.9015 C.ar    1  UNL1        0.0756
     25 C           1.9881    2.2487    5.1412 C.ar    1  UNL1        0.1353
     26 C           3.3595    1.9097    5.3241 C.ar    1  UNL1       -0.0124
     27 C           3.8901    1.2840    4.2174 C.ar    1  UNL1       -0.0203
     28 C          -0.1893    2.5799    6.0385 C.3     1  UNL1        0.0788
     29 H          -6.8125   -2.6984    1.9889 H       1  UNL1        0.2098
     30 H          -0.8845    1.6510    1.6082 H       1  UNL1        0.2017
     31 H           0.7439    1.9744    1.3814 H       1  UNL1        0.2017
     32 H          -1.8254   -1.9333    1.0585 H       1  UNL1        0.0302
     33 H          -2.3210   -0.3471    1.7051 H       1  UNL1        0.0302
     34 H          -4.3853   -1.7715    2.0766 H       1  UNL1        0.0318
     35 H          -4.2197   -3.0421    0.9381 H       1  UNL1        0.0318
     36 H          -4.1288    0.8097   -0.6633 H       1  UNL1        0.0294
     37 H          -4.3200    0.7679    1.0386 H       1  UNL1        0.0294
     38 H          -6.2264   -2.4315   -0.1837 H       1  UNL1        0.0594
     39 H          -6.1063   -0.3414   -1.0906 H       1  UNL1        0.0291
     40 H          -6.5727    0.3346    0.4216 H       1  UNL1        0.0291
     41 H          -0.8016   -1.9448   -1.3159 H       1  UNL1        0.0296
     42 H          -0.5952   -0.3814   -2.1211 H       1  UNL1        0.0296
     43 H           0.9935    0.0336   -0.0665 H       1  UNL1        0.0326
     44 H           0.4588   -1.5192    0.5600 H       1  UNL1        0.0326
     45 H          -2.9625   -0.0540   -2.1899 H       1  UNL1        0.0560
     46 H          -2.5587   -1.6058   -2.9164 H       1  UNL1        0.0560
     47 H          -0.3656   -0.4394    2.5738 H       1  UNL1        0.0814
     48 H           1.3341   -0.0908    2.3428 H       1  UNL1        0.0814
     49 H           0.2891    1.6438   -1.4000 H       1  UNL1        0.0636
     50 H          -0.0789    4.0563   -1.4475 H       1  UNL1        0.0619
     51 H          -3.3396    3.5346    1.0950 H       1  UNL1        0.0829
     52 H          -0.5607    1.5324    3.9403 H       1  UNL1        0.0873
     53 H          -0.0670    3.0882    3.2691 H       1  UNL1        0.0873
     54 H          -1.9302    5.0089   -0.1738 H       1  UNL1        0.0633
     55 H           3.8930    2.1094    6.1847 H       1  UNL1        0.0659
     56 H           4.8676    0.9599    4.1512 H       1  UNL1        0.0694
     57 H          -0.6749    3.1381    6.8116 H       1  UNL1        0.0660
     58 H          -0.3411    1.5339    6.2047 H       1  UNL1        0.0660
     59 H          -0.6002    2.8535    5.0892 H       1  UNL1        0.0660
@<TRIPOS>UNITY_ATOM_ATTR
6 1
charge 1
@<TRIPOS>BOND
     1     1    24   ar
     2     1    27   ar
     3     2    16    1
     4     3    12    1
     5     3    29    1
     6     4    25    1
     7     4    28    1
     8     5    17   ar
     9     5    21   ar
    10     6    18    1
    11     6    22    1
    12     6    30    1
    13     6    31    1
    14     7     2    1
    15     7     9    1
    16     7    10    1
    17     7    11    1
    18     8     9    1
    19     8    14    1
    20     8    15    1
    21     8    17    1
    22     9    32    1
    23     9    33    1
    24    10    12    1
    25    10    34    1
    26    10    35    1
    27    11    13    1
    28    11    36    1
    29    11    37    1
    30    12    13    1
    31    12    38    1
    32    13    39    1
    33    13    40    1
    34    14    16    1
    35    14    41    1
    36    14    42    1
    37    15    18    1
    38    15    43    1
    39    15    44    1
    40    16    45    1
    41    16    46    1
    42    17    19   ar
    43    18    47    1
    44    18    48    1
    45    19    20   ar
    46    19    49    1
    47    20    23   ar
    48    20    50    1
    49    21    23   ar
    50    21    51    1
    51    22    24    1
    52    22    52    1
    53    22    53    1
    54    23    54    1
    55    24    25   ar
    56    25    26   ar
    57    26    27   ar
    58    26    55    1
    59    27    56    1
    60    28    57    1
    61    28    58    1
    62    28    59    1
@<TRIPOS>MOLECULE
154925832
 59 62 0 0 0
SMALL
GASTEIGER

@<TRIPOS>ATOM
      1 S           1.1076    4.6402    3.1614 S.2     1  UNL1       -0.0926
      2 O          -3.4780   -1.7041   -1.1056 O.3     1  UNL1       -0.3732
      3 O          -6.8095   -1.7965    1.6320 O.3     1  UNL1       -0.3917
      4 O          -2.5327    3.4539    3.6918 O.3     1  UNL1       -0.4941
      5 N          -2.3814    1.7902    0.6045 N.ar    1  UNL1       -0.2593
      6 N           0.0578    1.4996    1.9681 N.4     1  UNL1        0.2308
      7 C          -3.5817   -1.0970    0.1878 C.3     1  UNL1        0.0728
      8 C          -1.1415   -0.2325   -0.0614 C.3     1  UNL1        0.0224
      9 C          -2.1927   -0.9539    0.8332 C.3     1  UNL1       -0.0123
     10 C          -4.4808   -2.0092    1.0377 C.3     1  UNL1        0.0024
     11 C          -4.4284    0.1820    0.1498 C.3     1  UNL1       -0.0213
     12 C          -5.9002   -1.7207    0.5465 C.3     1  UNL1        0.0580
     13 C          -5.8625   -0.3127   -0.0491 C.3     1  UNL1       -0.0242
     14 C          -1.1858   -0.9535   -1.4364 C.3     1  UNL1       -0.0181
     15 C           0.2670   -0.4668    0.5390 C.3     1  UNL1       -0.0013
     16 C          -2.5969   -1.0429   -2.0073 C.3     1  UNL1        0.0492
     17 C          -1.3476    1.2945   -0.1120 C.ar    1  UNL1        0.0478
     18 C           0.3478    0.0706    1.9607 C.3     1  UNL1       -0.0325
     19 C          -0.4864    2.0714   -0.8701 C.ar    1  UNL1       -0.0398
     20 C          -0.6998    3.4452   -0.8943 C.ar    1  UNL1       -0.0586
     21 C          -2.5576    3.1296    0.5569 C.ar    1  UNL1        0.0279
     22 C           0.1453    2.0406    3.3171 C.3     1  UNL1        0.0021
     23 C          -1.7531    3.9923   -0.1700 C.ar    1  UNL1       -0.0436
     24 C          -0.1672    3.5129    3.3521 C.ar    1  UNL1        0.0756
     25 C          -1.3849    4.1339    3.5237 C.ar    1  UNL1        0.1353
     26 C          -1.2698    5.5535    3.4981 C.ar    1  UNL1       -0.0124
     27 C           0.0315    5.9639    3.3080 C.ar    1  UNL1       -0.0203
     28 C          -3.7414    4.0594    3.2119 C.3     1  UNL1        0.0788
     29 H          -6.8125   -2.6984    1.9889 H       1  UNL1        0.2098
     30 H          -0.8845    1.6510    1.6082 H       1  UNL1        0.2017
     31 H           0.7439    1.9744    1.3814 H       1  UNL1        0.2017
     32 H          -1.8254   -1.9333    1.0585 H       1  UNL1        0.0302
     33 H          -2.3210   -0.3471    1.7051 H       1  UNL1        0.0302
     34 H          -4.3853   -1.7715    2.0766 H       1  UNL1        0.0318
     35 H          -4.2197   -3.0421    0.9381 H       1  UNL1        0.0318
     36 H          -4.1288    0.8097   -0.6633 H       1  UNL1        0.0294
     37 H          -4.3200    0.7679    1.0386 H       1  UNL1        0.0294
     38 H          -6.2264   -2.4315   -0.1837 H       1  UNL1        0.0594
     39 H          -6.1063   -0.3414   -1.0906 H       1  UNL1        0.0291
     40 H          -6.5727    0.3346    0.4216 H       1  UNL1        0.0291
     41 H          -0.8016   -1.9448   -1.3159 H       1  UNL1        0.0296
     42 H          -0.5952   -0.3814   -2.1211 H       1  UNL1        0.0296
     43 H           0.9935    0.0336   -0.0665 H       1  UNL1        0.0326
     44 H           0.4588   -1.5192    0.5600 H       1  UNL1        0.0326
     45 H          -2.9625   -0.0540   -2.1899 H       1  UNL1        0.0560
     46 H          -2.5587   -1.6058   -2.9164 H       1  UNL1        0.0560
     47 H          -0.3656   -0.4394    2.5738 H       1  UNL1        0.0814
     48 H           1.3341   -0.0908    2.3428 H       1  UNL1        0.0814
     49 H           0.2891    1.6438   -1.4000 H       1  UNL1        0.0636
     50 H          -0.0789    4.0563   -1.4475 H       1  UNL1        0.0619
     51 H          -3.3396    3.5346    1.0950 H       1  UNL1        0.0829
     52 H           1.1378    1.8886    3.6872 H       1  UNL1        0.0873
     53 H          -0.5746    1.5338    3.9254 H       1  UNL1        0.0873
     54 H          -1.9302    5.0089   -0.1738 H       1  UNL1        0.0633
     55 H          -2.0675    6.1988    3.6090 H       1  UNL1        0.0659
     56 H           0.3233    6.9526    3.2597 H       1  UNL1        0.0694
     57 H          -4.5688    3.4109    3.4117 H       1  UNL1        0.0660
     58 H          -3.6637    4.2239    2.1576 H       1  UNL1        0.0660
     59 H          -3.8934    4.9949    3.7086 H       1  UNL1        0.0660
@<TRIPOS>UNITY_ATOM_ATTR
6 1
charge 1
@<TRIPOS>BOND
     1     1    24   ar
     2     1    27   ar
     3     2    16    1
     4     3    12    1
     5     3    29    1
     6     4    25    1
     7     4    28    1
     8     5    17   ar
     9     5    21   ar
    10     6    18    1
    11     6    22    1
    12     6    30    1
    13     6    31    1
    14     7     2    1
    15     7     9    1
    16     7    10    1
    17     7    11    1
    18     8     9    1
    19     8    14    1
    20     8    15    1
    21     8    17    1
    22     9    32    1
    23     9    33    1
    24    10    12    1
    25    10    34    1
    26    10    35    1
    27    11    13    1
    28    11    36    1
    29    11    37    1
    30    12    13    1
    31    12    38    1
    32    13    39    1
    33    13    40    1
    34    14    16    1
    35    14    41    1
    36    14    42    1
    37    15    18    1
    38    15    43    1
    39    15    44    1
    40    16    45    1
    41    16    46    1
    42    17    19   ar
    43    18    47    1
    44    18    48    1
    45    19    20   ar
    46    19    49    1
    47    20    23   ar
    48    20    50    1
    49    21    23   ar
    50    21    51    1
    51    22    24    1
    52    22    52    1
    53    22    53    1
    54    23    54    1
    55    24    25   ar
    56    25    26   ar
    57    26    27   ar
    58    26    55    1
    59    27    56    1
    60    28    57    1
    61    28    58    1
    62    28    59    1
@<TRIPOS>MOLECULE
154925832
 59 62 0 0 0
SMALL
GASTEIGER

@<TRIPOS>ATOM
      1 S           1.8241    2.8233    2.6132 S.2     1  UNL1       -0.0926
      2 O          -3.4780   -1.7041   -1.1056 O.3     1  UNL1       -0.3732
      3 O          -6.8095   -1.7965    1.6320 O.3     1  UNL1       -0.3917
      4 O           0.5768    1.9465    6.1650 O.3     1  UNL1       -0.4941
      5 N          -0.6967    2.0248    0.8212 N.ar    1  UNL1       -0.2593
      6 N           1.6860   -0.1462    2.4978 N.4     1  UNL1        0.2308
      7 C          -3.5817   -1.0970    0.1878 C.3     1  UNL1        0.0728
      8 C          -1.1415   -0.2325   -0.0614 C.3     1  UNL1        0.0224
      9 C          -2.1927   -0.9539    0.8332 C.3     1  UNL1       -0.0123
     10 C          -4.4808   -2.0092    1.0377 C.3     1  UNL1        0.0024
     11 C          -4.4284    0.1820    0.1498 C.3     1  UNL1       -0.0213
     12 C          -5.9002   -1.7207    0.5465 C.3     1  UNL1        0.0580
     13 C          -5.8625   -0.3127   -0.0491 C.3     1  UNL1       -0.0242
     14 C          -1.1858   -0.9535   -1.4364 C.3     1  UNL1       -0.0181
     15 C           0.2670   -0.4668    0.5390 C.3     1  UNL1       -0.0013
     16 C          -2.5969   -1.0429   -2.0073 C.3     1  UNL1        0.0492
     17 C          -1.3476    1.2945   -0.1120 C.ar    1  UNL1        0.0478
     18 C           0.3478    0.0706    1.9607 C.3     1  UNL1       -0.0325
     19 C          -2.1696    1.8370   -1.0866 C.ar    1  UNL1       -0.0398
     20 C          -2.3341    3.2176   -1.1046 C.ar    1  UNL1       -0.0586
     21 C          -0.8807    3.3631    0.7724 C.ar    1  UNL1        0.0279
     22 C           1.7832    0.3454    3.8648 C.3     1  UNL1        0.0021
     23 C          -1.6810    4.0023   -0.1607 C.ar    1  UNL1       -0.0436
     24 C           1.4773    1.8169    3.9544 C.ar    1  UNL1        0.0756
     25 C           0.9325    2.5238    5.0039 C.ar    1  UNL1        0.1353
     26 C           0.7979    3.9096    4.7027 C.ar    1  UNL1       -0.0124
     27 C           1.2449    4.2096    3.4347 C.ar    1  UNL1       -0.0203
     28 C           1.3093    0.7862    6.5833 C.3     1  UNL1        0.0788
     29 H          -6.8125   -2.6984    1.9889 H       1  UNL1        0.2098
     30 H           2.3632    0.3475    1.9164 H       1  UNL1        0.2017
     31 H           1.8790   -1.1478    2.4971 H       1  UNL1        0.2017
     32 H          -1.8254   -1.9333    1.0585 H       1  UNL1        0.0302
     33 H          -2.3210   -0.3471    1.7051 H       1  UNL1        0.0302
     34 H          -4.3853   -1.7715    2.0766 H       1  UNL1        0.0318
     35 H          -4.2197   -3.0421    0.9381 H       1  UNL1        0.0318
     36 H          -4.1288    0.8097   -0.6633 H       1  UNL1        0.0294
     37 H          -4.3200    0.7679    1.0386 H       1  UNL1        0.0294
     38 H          -6.2264   -2.4315   -0.1837 H       1  UNL1        0.0594
     39 H          -6.1063   -0.3414   -1.0906 H       1  UNL1        0.0291
     40 H          -6.5727    0.3346    0.4216 H       1  UNL1        0.0291
     41 H          -0.8016   -1.9448   -1.3159 H       1  UNL1        0.0296
     42 H          -0.5952   -0.3814   -2.1211 H       1  UNL1        0.0296
     43 H           0.9935    0.0336   -0.0665 H       1  UNL1        0.0326
     44 H           0.4588   -1.5192    0.5600 H       1  UNL1        0.0326
     45 H          -2.9625   -0.0540   -2.1899 H       1  UNL1        0.0560
     46 H          -2.5587   -1.6058   -2.9164 H       1  UNL1        0.0560
     47 H           0.1326    1.1188    1.9565 H       1  UNL1        0.0814
     48 H          -0.3647   -0.4424    2.5723 H       1  UNL1        0.0814
     49 H          -2.6448    1.2353   -1.7775 H       1  UNL1        0.0636
     50 H          -2.9386    3.6581   -1.8157 H       1  UNL1        0.0619
     51 H          -0.3952    3.9445    1.4733 H       1  UNL1        0.0829
     52 H           2.7769    0.1761    4.2237 H       1  UNL1        0.0873
     53 H           1.0643   -0.1798    4.4584 H       1  UNL1        0.0873
     54 H          -1.7889    5.0286   -0.1553 H       1  UNL1        0.0633
     55 H           0.4109    4.6070    5.3576 H       1  UNL1        0.0659
     56 H           1.2323    5.1578    3.0278 H       1  UNL1        0.0694
     57 H           0.9203    0.4362    7.5167 H       1  UNL1        0.0660
     58 H           2.3423    1.0394    6.6998 H       1  UNL1        0.0660
     59 H           1.2116    0.0175    5.8454 H       1  UNL1        0.0660
@<TRIPOS>UNITY_ATOM_ATTR
6 1
charge 1
@<TRIPOS>BOND
     1     1    24   ar
     2     1    27   ar
     3     2    16    1
     4     3    12    1
     5     3    29    1
     6     4    25    1
     7     4    28    1
     8     5    17   ar
     9     5    21   ar
    10     6    18    1
    11     6    22    1
    12     6    30    1
    13     6    31    1
    14     7     2    1
    15     7     9    1
    16     7    10    1
    17     7    11    1
    18     8     9    1
    19     8    14    1
    20     8    15    1
    21     8    17    1
    22     9    32    1
    23     9    33    1
    24    10    12    1
    25    10    34    1
    26    10    35    1
    27    11    13    1
    28    11    36    1
    29    11    37    1
    30    12    13    1
    31    12    38    1
    32    13    39    1
    33    13    40    1
    34    14    16    1
    35    14    41    1
    36    14    42    1
    37    15    18    1
    38    15    43    1
    39    15    44    1
    40    16    45    1
    41    16    46    1
    42    17    19   ar
    43    18    47    1
    44    18    48    1
    45    19    20   ar
    46    19    49    1
    47    20    23   ar
    48    20    50    1
    49    21    23   ar
    50    21    51    1
    51    22    24    1
    52    22    52    1
    53    22    53    1
    54    23    54    1
    55    24    25   ar
    56    25    26   ar
    57    26    27   ar
    58    26    55    1
    59    27    56    1
    60    28    57    1
    61    28    58    1
    62    28    59    1
@<TRIPOS>MOLECULE
154925832
 59 62 0 0 0
SMALL
GASTEIGER

@<TRIPOS>ATOM
      1 S           1.8717   -3.2808   -1.4794 S.2     1  UNL1       -0.0926
      2 O          -3.4780   -1.7041   -1.1056 O.3     1  UNL1       -0.3732
      3 O          -6.8095   -1.7965    1.6320 O.3     1  UNL1       -0.3917
      4 O           4.6922   -0.7130   -2.1052 O.3     1  UNL1       -0.4941
      5 N          -1.8975    1.8680    0.9819 N.ar    1  UNL1       -0.2593
      6 N           2.6511   -0.0149    0.2847 N.4     1  UNL1        0.2308
      7 C          -3.5817   -1.0970    0.1878 C.3     1  UNL1        0.0728
      8 C          -1.1415   -0.2325   -0.0614 C.3     1  UNL1        0.0224
      9 C          -2.1927   -0.9539    0.8332 C.3     1  UNL1       -0.0123
     10 C          -4.4808   -2.0092    1.0377 C.3     1  UNL1        0.0024
     11 C          -4.4284    0.1820    0.1498 C.3     1  UNL1       -0.0213
     12 C          -5.9002   -1.7207    0.5465 C.3     1  UNL1        0.0580
     13 C          -5.8625   -0.3127   -0.0491 C.3     1  UNL1       -0.0242
     14 C          -1.1858   -0.9535   -1.4364 C.3     1  UNL1       -0.0181
     15 C           0.2670   -0.4668    0.5390 C.3     1  UNL1       -0.0013
     16 C          -2.5969   -1.0429   -2.0073 C.3     1  UNL1        0.0492
     17 C          -1.3476    1.2945   -0.1120 C.ar    1  UNL1        0.0478
     18 C           1.3342    0.2337   -0.2898 C.3     1  UNL1       -0.0325
     19 C          -0.9698    1.9936   -1.2471 C.ar    1  UNL1       -0.0398
     20 C          -1.1692    3.3697   -1.2603 C.ar    1  UNL1       -0.0586
     21 C          -2.0760    3.2071    0.9324 C.ar    1  UNL1        0.0279
     22 C           2.9533   -1.4392    0.2945 C.3     1  UNL1        0.0021
     23 C          -1.7324    3.9956   -0.1539 C.ar    1  UNL1       -0.0436
     24 C           2.9641   -2.0196   -1.0947 C.ar    1  UNL1        0.0756
     25 C           3.7589   -1.6790   -2.1672 C.ar    1  UNL1        0.1353
     26 C           3.4670   -2.4636   -3.3197 C.ar    1  UNL1       -0.0124
     27 C           2.4603   -3.3742   -3.0846 C.ar    1  UNL1       -0.0203
     28 C           5.3187   -0.4732   -0.8371 C.3     1  UNL1        0.0788
     29 H          -6.8125   -2.6984    1.9889 H       1  UNL1        0.2098
     30 H           2.6698    0.3370    1.2420 H       1  UNL1        0.2017
     31 H           3.3503    0.4627   -0.2841 H       1  UNL1        0.2017
     32 H          -1.8254   -1.9333    1.0585 H       1  UNL1        0.0302
     33 H          -2.3210   -0.3471    1.7051 H       1  UNL1        0.0302
     34 H          -4.3853   -1.7715    2.0766 H       1  UNL1        0.0318
     35 H          -4.2197   -3.0421    0.9381 H       1  UNL1        0.0318
     36 H          -4.1288    0.8097   -0.6633 H       1  UNL1        0.0294
     37 H          -4.3200    0.7679    1.0386 H       1  UNL1        0.0294
     38 H          -6.2264   -2.4315   -0.1837 H       1  UNL1        0.0594
     39 H          -6.1063   -0.3414   -1.0906 H       1  UNL1        0.0291
     40 H          -6.5727    0.3346    0.4216 H       1  UNL1        0.0291
     41 H          -0.8016   -1.9448   -1.3159 H       1  UNL1        0.0296
     42 H          -0.5952   -0.3814   -2.1211 H       1  UNL1        0.0296
     43 H           0.4702   -1.5172    0.5562 H       1  UNL1        0.0326
     44 H           0.2867   -0.0660    1.5309 H       1  UNL1        0.0326
     45 H          -2.9625   -0.0540   -2.1899 H       1  UNL1        0.0560
     46 H          -2.5587   -1.6058   -2.9164 H       1  UNL1        0.0560
     47 H           1.3078   -0.1407   -1.2918 H       1  UNL1        0.0814
     48 H           1.1438    1.2866   -0.2920 H       1  UNL1        0.0814
     49 H          -0.5535    1.5083   -2.0572 H       1  UNL1        0.0636
     50 H          -0.9002    3.9242   -2.0881 H       1  UNL1        0.0619
     51 H          -2.4939    3.6706    1.7543 H       1  UNL1        0.0829
     52 H           2.2117   -1.9464    0.8757 H       1  UNL1        0.0873
     53 H           3.9283   -1.5689    0.7161 H       1  UNL1        0.0873
     54 H          -1.8897    5.0155   -0.1421 H       1  UNL1        0.0633
     55 H           3.9526   -2.3618   -4.2246 H       1  UNL1        0.0659
     56 H           2.1031   -4.0347   -3.7925 H       1  UNL1        0.0694
     57 H           6.0341    0.3162   -0.9364 H       1  UNL1        0.0660
     58 H           5.8132   -1.3637   -0.5096 H       1  UNL1        0.0660
     59 H           4.5759   -0.1932   -0.1196 H       1  UNL1        0.0660
@<TRIPOS>UNITY_ATOM_ATTR
6 1
charge 1
@<TRIPOS>BOND
     1     1    24   ar
     2     1    27   ar
     3     2    16    1
     4     3    12    1
     5     3    29    1
     6     4    25    1
     7     4    28    1
     8     5    17   ar
     9     5    21   ar
    10     6    18    1
    11     6    22    1
    12     6    30    1
    13     6    31    1
    14     7     2    1
    15     7     9    1
    16     7    10    1
    17     7    11    1
    18     8     9    1
    19     8    14    1
    20     8    15    1
    21     8    17    1
    22     9    32    1
    23     9    33    1
    24    10    12    1
    25    10    34    1
    26    10    35    1
    27    11    13    1
    28    11    36    1
    29    11    37    1
    30    12    13    1
    31    12    38    1
    32    13    39    1
    33    13    40    1
    34    14    16    1
    35    14    41    1
    36    14    42    1
    37    15    18    1
    38    15    43    1
    39    15    44    1
    40    16    45    1
    41    16    46    1
    42    17    19   ar
    43    18    47    1
    44    18    48    1
    45    19    20   ar
    46    19    49    1
    47    20    23   ar
    48    20    50    1
    49    21    23   ar
    50    21    51    1
    51    22    24    1
    52    22    52    1
    53    22    53    1
    54    23    54    1
    55    24    25   ar
    56    25    26   ar
    57    26    27   ar
    58    26    55    1
    59    27    56    1
    60    28    57    1
    61    28    58    1
    62    28    59    1
@<TRIPOS>MOLECULE
154925832
 59 62 0 0 0
SMALL
GASTEIGER

@<TRIPOS>ATOM
      1 S           4.8754    0.8657   -2.9839 S.2     1  UNL1       -0.0926
      2 O          -3.4780   -1.7041   -1.1056 O.3     1  UNL1       -0.3732
      3 O          -6.8095   -1.7965    1.6320 O.3     1  UNL1       -0.3917
      4 O           1.9108   -1.3690   -1.9083 O.3     1  UNL1       -0.4941
      5 N          -1.8975    1.8680    0.9819 N.ar    1  UNL1       -0.2593
      6 N           2.6511   -0.0149    0.2847 N.4     1  UNL1        0.2308
      7 C          -3.5817   -1.0970    0.1878 C.3     1  UNL1        0.0728
      8 C          -1.1415   -0.2325   -0.0614 C.3     1  UNL1        0.0224
      9 C          -2.1927   -0.9539    0.8332 C.3     1  UNL1       -0.0123
     10 C          -4.4808   -2.0092    1.0377 C.3     1  UNL1        0.0024
     11 C          -4.4284    0.1820    0.1498 C.3     1  UNL1       -0.0213
     12 C          -5.9002   -1.7207    0.5465 C.3     1  UNL1        0.0580
     13 C          -5.8625   -0.3127   -0.0491 C.3     1  UNL1       -0.0242
     14 C          -1.1858   -0.9535   -1.4364 C.3     1  UNL1       -0.0181
     15 C           0.2670   -0.4668    0.5390 C.3     1  UNL1       -0.0013
     16 C          -2.5969   -1.0429   -2.0073 C.3     1  UNL1        0.0492
     17 C          -1.3476    1.2945   -0.1120 C.ar    1  UNL1        0.0478
     18 C           1.3342    0.2337   -0.2898 C.3     1  UNL1       -0.0325
     19 C          -0.9698    1.9936   -1.2471 C.ar    1  UNL1       -0.0398
     20 C          -1.1692    3.3697   -1.2603 C.ar    1  UNL1       -0.0586
     21 C          -2.0760    3.2071    0.9324 C.ar    1  UNL1        0.0279
     22 C           3.6886    0.6598   -0.4825 C.3     1  UNL1        0.0021
     23 C          -1.7324    3.9956   -0.1539 C.ar    1  UNL1       -0.0436
     24 C           3.7116    0.2030   -1.9169 C.ar    1  UNL1        0.0756
     25 C           2.8986   -0.7151   -2.5445 C.ar    1  UNL1        0.1353
     26 C           3.2357   -0.8767   -3.9191 C.ar    1  UNL1       -0.0124
     27 C           4.2935   -0.0760   -4.2902 C.ar    1  UNL1       -0.0203
     28 C           1.5828   -2.6882   -2.3667 C.3     1  UNL1        0.0788
     29 H          -6.8125   -2.6984    1.9889 H       1  UNL1        0.2098
     30 H           2.8328   -1.0186    0.2815 H       1  UNL1        0.2017
     31 H           2.6641    0.3464    1.2385 H       1  UNL1        0.2017
     32 H          -1.8254   -1.9333    1.0585 H       1  UNL1        0.0302
     33 H          -2.3210   -0.3471    1.7051 H       1  UNL1        0.0302
     34 H          -4.3853   -1.7715    2.0766 H       1  UNL1        0.0318
     35 H          -4.2197   -3.0421    0.9381 H       1  UNL1        0.0318
     36 H          -4.1288    0.8097   -0.6633 H       1  UNL1        0.0294
     37 H          -4.3200    0.7679    1.0386 H       1  UNL1        0.0294
     38 H          -6.2264   -2.4315   -0.1837 H       1  UNL1        0.0594
     39 H          -6.1063   -0.3414   -1.0906 H       1  UNL1        0.0291
     40 H          -6.5727    0.3346    0.4216 H       1  UNL1        0.0291
     41 H          -0.8016   -1.9448   -1.3159 H       1  UNL1        0.0296
     42 H          -0.5952   -0.3814   -2.1211 H       1  UNL1        0.0296
     43 H           0.4702   -1.5172    0.5562 H       1  UNL1        0.0326
     44 H           0.2867   -0.0660    1.5309 H       1  UNL1        0.0326
     45 H          -2.9625   -0.0540   -2.1899 H       1  UNL1        0.0560
     46 H          -2.5587   -1.6058   -2.9164 H       1  UNL1        0.0560
     47 H           1.3078   -0.1407   -1.2918 H       1  UNL1        0.0814
     48 H           1.1438    1.2866   -0.2920 H       1  UNL1        0.0814
     49 H          -0.5535    1.5083   -2.0572 H       1  UNL1        0.0636
     50 H          -0.9002    3.9242   -2.0881 H       1  UNL1        0.0619
     51 H          -2.4939    3.6706    1.7543 H       1  UNL1        0.0829
     52 H           4.6391    0.4511   -0.0375 H       1  UNL1        0.0873
     53 H           3.4800    1.7092   -0.4715 H       1  UNL1        0.0873
     54 H          -1.8897    5.0155   -0.1421 H       1  UNL1        0.0633
     55 H           2.7451   -1.5183   -4.5615 H       1  UNL1        0.0659
     56 H           4.6885   -0.0470   -5.2431 H       1  UNL1        0.0694
     57 H           0.7854   -3.0841   -1.7730 H       1  UNL1        0.0660
     58 H           2.4414   -3.3203   -2.2779 H       1  UNL1        0.0660
     59 H           1.2768   -2.6441   -3.3911 H       1  UNL1        0.0660
@<TRIPOS>UNITY_ATOM_ATTR
6 1
charge 1
@<TRIPOS>BOND
     1     1    24   ar
     2     1    27   ar
     3     2    16    1
     4     3    12    1
     5     3    29    1
     6     4    25    1
     7     4    28    1
     8     5    17   ar
     9     5    21   ar
    10     6    18    1
    11     6    22    1
    12     6    30    1
    13     6    31    1
    14     7     2    1
    15     7     9    1
    16     7    10    1
    17     7    11    1
    18     8     9    1
    19     8    14    1
    20     8    15    1
    21     8    17    1
    22     9    32    1
    23     9    33    1
    24    10    12    1
    25    10    34    1
    26    10    35    1
    27    11    13    1
    28    11    36    1
    29    11    37    1
    30    12    13    1
    31    12    38    1
    32    13    39    1
    33    13    40    1
    34    14    16    1
    35    14    41    1
    36    14    42    1
    37    15    18    1
    38    15    43    1
    39    15    44    1
    40    16    45    1
    41    16    46    1
    42    17    19   ar
    43    18    47    1
    44    18    48    1
    45    19    20   ar
    46    19    49    1
    47    20    23   ar
    48    20    50    1
    49    21    23   ar
    50    21    51    1
    51    22    24    1
    52    22    52    1
    53    22    53    1
    54    23    54    1
    55    24    25   ar
    56    25    26   ar
    57    26    27   ar
    58    26    55    1
    59    27    56    1
    60    28    57    1
    61    28    58    1
    62    28    59    1
@<TRIPOS>MOLECULE
154925832
 59 62 0 0 0
SMALL
GASTEIGER

@<TRIPOS>ATOM
      1 S           4.7931    2.1379   -1.6813 S.2     1  UNL1       -0.0926
      2 O          -3.4780   -1.7041   -1.1056 O.3     1  UNL1       -0.3732
      3 O          -6.8095   -1.7965    1.6320 O.3     1  UNL1       -0.3917
      4 O           3.0340    1.8674    1.7498 O.3     1  UNL1       -0.4941
      5 N          -0.6967    2.0248    0.8212 N.ar    1  UNL1       -0.2593
      6 N           1.0858    1.6705   -0.3064 N.4     1  UNL1        0.2308
      7 C          -3.5817   -1.0970    0.1878 C.3     1  UNL1        0.0728
      8 C          -1.1415   -0.2325   -0.0614 C.3     1  UNL1        0.0224
      9 C          -2.1927   -0.9539    0.8332 C.3     1  UNL1       -0.0123
     10 C          -4.4808   -2.0092    1.0377 C.3     1  UNL1        0.0024
     11 C          -4.4284    0.1820    0.1498 C.3     1  UNL1       -0.0213
     12 C          -5.9002   -1.7207    0.5465 C.3     1  UNL1        0.0580
     13 C          -5.8625   -0.3127   -0.0491 C.3     1  UNL1       -0.0242
     14 C          -1.1858   -0.9535   -1.4364 C.3     1  UNL1       -0.0181
     15 C           0.2670   -0.4668    0.5390 C.3     1  UNL1       -0.0013
     16 C          -2.5969   -1.0429   -2.0073 C.3     1  UNL1        0.0492
     17 C          -1.3476    1.2945   -0.1120 C.ar    1  UNL1        0.0478
     18 C           1.3342    0.2337   -0.2898 C.3     1  UNL1       -0.0325
     19 C          -2.1696    1.8370   -1.0866 C.ar    1  UNL1       -0.0398
     20 C          -2.3341    3.2176   -1.1046 C.ar    1  UNL1       -0.0586
     21 C          -0.8807    3.3631    0.7724 C.ar    1  UNL1        0.0279
     22 C           2.0858    2.3615   -1.1080 C.3     1  UNL1        0.0021
     23 C          -1.6810    4.0023   -0.1607 C.ar    1  UNL1       -0.0436
     24 C           3.4789    2.1349   -0.5837 C.ar    1  UNL1        0.0756
     25 C           3.8886    1.9119    0.7126 C.ar    1  UNL1        0.1353
     26 C           5.2998    1.7415    0.8058 C.ar    1  UNL1       -0.0124
     27 C           5.9153    1.8405   -0.4227 C.ar    1  UNL1       -0.0203
     28 C           3.5198    2.2915    3.0312 C.3     1  UNL1        0.0788
     29 H          -6.8125   -2.6984    1.9889 H       1  UNL1        0.2098
     30 H           1.1196    2.0263    0.6490 H       1  UNL1        0.2017
     31 H           0.1670    1.8376   -0.7166 H       1  UNL1        0.2017
     32 H          -1.8254   -1.9333    1.0585 H       1  UNL1        0.0302
     33 H          -2.3210   -0.3471    1.7051 H       1  UNL1        0.0302
     34 H          -4.3853   -1.7715    2.0766 H       1  UNL1        0.0318
     35 H          -4.2197   -3.0421    0.9381 H       1  UNL1        0.0318
     36 H          -4.1288    0.8097   -0.6633 H       1  UNL1        0.0294
     37 H          -4.3200    0.7679    1.0386 H       1  UNL1        0.0294
     38 H          -6.2264   -2.4315   -0.1837 H       1  UNL1        0.0594
     39 H          -6.1063   -0.3414   -1.0906 H       1  UNL1        0.0291
     40 H          -6.5727    0.3346    0.4216 H       1  UNL1        0.0291
     41 H          -0.8016   -1.9448   -1.3159 H       1  UNL1        0.0296
     42 H          -0.5952   -0.3814   -2.1211 H       1  UNL1        0.0296
     43 H           0.4702   -1.5172    0.5562 H       1  UNL1        0.0326
     44 H           0.2867   -0.0660    1.5309 H       1  UNL1        0.0326
     45 H          -2.9625   -0.0540   -2.1899 H       1  UNL1        0.0560
     46 H          -2.5587   -1.6058   -2.9164 H       1  UNL1        0.0560
     47 H           2.2966    0.0449    0.1383 H       1  UNL1        0.0814
     48 H           1.3043   -0.1406   -1.2917 H       1  UNL1        0.0814
     49 H          -2.6448    1.2353   -1.7775 H       1  UNL1        0.0636
     50 H          -2.9386    3.6581   -1.8157 H       1  UNL1        0.0619
     51 H          -0.3952    3.9445    1.4733 H       1  UNL1        0.0829
     52 H           1.8768    3.4108   -1.0929 H       1  UNL1        0.0873
     53 H           2.0388    1.9734   -2.1041 H       1  UNL1        0.0873
     54 H          -1.7889    5.0286   -0.1553 H       1  UNL1        0.0633
     55 H           5.8021    1.5646    1.6897 H       1  UNL1        0.0659
     56 H           6.9328    1.7466   -0.5674 H       1  UNL1        0.0694
     57 H           2.7378    2.2029    3.7562 H       1  UNL1        0.0660
     58 H           3.8378    3.3114    2.9723 H       1  UNL1        0.0660
     59 H           4.3460    1.6764    3.3208 H       1  UNL1        0.0660
@<TRIPOS>UNITY_ATOM_ATTR
6 1
charge 1
@<TRIPOS>BOND
     1     1    24   ar
     2     1    27   ar
     3     2    16    1
     4     3    12    1
     5     3    29    1
     6     4    25    1
     7     4    28    1
     8     5    17   ar
     9     5    21   ar
    10     6    18    1
    11     6    22    1
    12     6    30    1
    13     6    31    1
    14     7     2    1
    15     7     9    1
    16     7    10    1
    17     7    11    1
    18     8     9    1
    19     8    14    1
    20     8    15    1
    21     8    17    1
    22     9    32    1
    23     9    33    1
    24    10    12    1
    25    10    34    1
    26    10    35    1
    27    11    13    1
    28    11    36    1
    29    11    37    1
    30    12    13    1
    31    12    38    1
    32    13    39    1
    33    13    40    1
    34    14    16    1
    35    14    41    1
    36    14    42    1
    37    15    18    1
    38    15    43    1
    39    15    44    1
    40    16    45    1
    41    16    46    1
    42    17    19   ar
    43    18    47    1
    44    18    48    1
    45    19    20   ar
    46    19    49    1
    47    20    23   ar
    48    20    50    1
    49    21    23   ar
    50    21    51    1
    51    22    24    1
    52    22    52    1
    53    22    53    1
    54    23    54    1
    55    24    25   ar
    56    25    26   ar
    57    26    27   ar
    58    26    55    1
    59    27    56    1
    60    28    57    1
    61    28    58    1
    62    28    59    1
@<TRIPOS>MOLECULE
154925832
 59 62 0 0 0
SMALL
GASTEIGER

@<TRIPOS>ATOM
      1 S           3.8035   -1.4372    4.5348 S.2     1  UNL1       -0.0926
      2 O          -3.4780   -1.7041   -1.1056 O.3     1  UNL1       -0.3732
      3 O          -6.8095   -1.7965    1.6320 O.3     1  UNL1       -0.3917
      4 O           3.7591    2.4064    4.9407 O.3     1  UNL1       -0.4941
      5 N          -2.6158    1.7397    0.0344 N.ar    1  UNL1       -0.2593
      6 N           1.6860   -0.1462    2.4978 N.4     1  UNL1        0.2308
      7 C          -3.5817   -1.0970    0.1878 C.3     1  UNL1        0.0728
      8 C          -1.1415   -0.2325   -0.0614 C.3     1  UNL1        0.0224
      9 C          -2.1927   -0.9539    0.8332 C.3     1  UNL1       -0.0123
     10 C          -4.4808   -2.0092    1.0377 C.3     1  UNL1        0.0024
     11 C          -4.4284    0.1820    0.1498 C.3     1  UNL1       -0.0213
     12 C          -5.9002   -1.7207    0.5465 C.3     1  UNL1        0.0580
     13 C          -5.8625   -0.3127   -0.0491 C.3     1  UNL1       -0.0242
     14 C          -1.1858   -0.9535   -1.4364 C.3     1  UNL1       -0.0181
     15 C           0.2670   -0.4668    0.5390 C.3     1  UNL1       -0.0013
     16 C          -2.5969   -1.0429   -2.0073 C.3     1  UNL1        0.0492
     17 C          -1.3476    1.2945   -0.1120 C.ar    1  UNL1        0.0478
     18 C           0.3478    0.0706    1.9607 C.3     1  UNL1       -0.0325
     19 C          -0.2522    2.1219   -0.3004 C.ar    1  UNL1       -0.0398
     20 C          -0.4725    3.4942   -0.3412 C.ar    1  UNL1       -0.0586
     21 C          -2.7910    3.0793   -0.0106 C.ar    1  UNL1        0.0279
     22 C           1.7832    0.3454    3.8648 C.3     1  UNL1        0.0021
     23 C          -1.7631    3.9901   -0.1945 C.ar    1  UNL1       -0.0436
     24 C           3.1625    0.1475    4.4350 C.ar    1  UNL1        0.0756
     25 C           4.0415    1.0920    4.9179 C.ar    1  UNL1        0.1353
     26 C           5.2571    0.5069    5.3755 C.ar    1  UNL1       -0.0124
     27 C           5.2611   -0.8625    5.2253 C.ar    1  UNL1       -0.0203
     28 C           2.4816    2.8216    4.4374 C.3     1  UNL1        0.0788
     29 H          -6.8125   -2.6984    1.9889 H       1  UNL1        0.2098
     30 H           2.3632    0.3475    1.9164 H       1  UNL1        0.2017
     31 H           1.8790   -1.1478    2.4971 H       1  UNL1        0.2017
     32 H          -1.8254   -1.9333    1.0585 H       1  UNL1        0.0302
     33 H          -2.3210   -0.3471    1.7051 H       1  UNL1        0.0302
     34 H          -4.3853   -1.7715    2.0766 H       1  UNL1        0.0318
     35 H          -4.2197   -3.0421    0.9381 H       1  UNL1        0.0318
     36 H          -4.1288    0.8097   -0.6633 H       1  UNL1        0.0294
     37 H          -4.3200    0.7679    1.0386 H       1  UNL1        0.0294
     38 H          -6.2264   -2.4315   -0.1837 H       1  UNL1        0.0594
     39 H          -6.1063   -0.3414   -1.0906 H       1  UNL1        0.0291
     40 H          -6.5727    0.3346    0.4216 H       1  UNL1        0.0291
     41 H          -0.8016   -1.9448   -1.3159 H       1  UNL1        0.0296
     42 H          -0.5952   -0.3814   -2.1211 H       1  UNL1        0.0296
     43 H           0.9935    0.0336   -0.0665 H       1  UNL1        0.0326
     44 H           0.4588   -1.5192    0.5600 H       1  UNL1        0.0326
     45 H          -2.9625   -0.0540   -2.1899 H       1  UNL1        0.0560
     46 H          -2.5587   -1.6058   -2.9164 H       1  UNL1        0.0560
     47 H           0.1326    1.1188    1.9565 H       1  UNL1        0.0814
     48 H          -0.3647   -0.4424    2.5723 H       1  UNL1        0.0814
     49 H           0.6973    1.7318   -0.4072 H       1  UNL1        0.0636
     50 H           0.3188    4.1420   -0.4797 H       1  UNL1        0.0619
     51 H          -3.7493    3.4463    0.0987 H       1  UNL1        0.0829
     52 H           1.0783   -0.1818    4.4732 H       1  UNL1        0.0873
     53 H           1.5752    1.3950    3.8557 H       1  UNL1        0.0873
     54 H          -1.9497    5.0047   -0.2217 H       1  UNL1        0.0633
     55 H           6.0424    1.0457    5.7730 H       1  UNL1        0.0659
     56 H           6.0497   -1.4702    5.4968 H       1  UNL1        0.0694
     57 H           2.3954    3.8852    4.5170 H       1  UNL1        0.0660
     58 H           1.7052    2.3571    5.0086 H       1  UNL1        0.0660
     59 H           2.3913    2.5322    3.4113 H       1  UNL1        0.0660
@<TRIPOS>UNITY_ATOM_ATTR
6 1
charge 1
@<TRIPOS>BOND
     1     1    24   ar
     2     1    27   ar
     3     2    16    1
     4     3    12    1
     5     3    29    1
     6     4    25    1
     7     4    28    1
     8     5    17   ar
     9     5    21   ar
    10     6    18    1
    11     6    22    1
    12     6    30    1
    13     6    31    1
    14     7     2    1
    15     7     9    1
    16     7    10    1
    17     7    11    1
    18     8     9    1
    19     8    14    1
    20     8    15    1
    21     8    17    1
    22     9    32    1
    23     9    33    1
    24    10    12    1
    25    10    34    1
    26    10    35    1
    27    11    13    1
    28    11    36    1
    29    11    37    1
    30    12    13    1
    31    12    38    1
    32    13    39    1
    33    13    40    1
    34    14    16    1
    35    14    41    1
    36    14    42    1
    37    15    18    1
    38    15    43    1
    39    15    44    1
    40    16    45    1
    41    16    46    1
    42    17    19   ar
    43    18    47    1
    44    18    48    1
    45    19    20   ar
    46    19    49    1
    47    20    23   ar
    48    20    50    1
    49    21    23   ar
    50    21    51    1
    51    22    24    1
    52    22    52    1
    53    22    53    1
    54    23    54    1
    55    24    25   ar
    56    25    26   ar
    57    26    27   ar
    58    26    55    1
    59    27    56    1
    60    28    57    1
    61    28    58    1
    62    28    59    1
@<TRIPOS>MOLECULE
154925832
 59 62 0 0 0
SMALL
GASTEIGER

@<TRIPOS>ATOM
      1 S           5.1334   -0.5216   -2.5380 S.2     1  UNL1       -0.0926
      2 O          -3.4780   -1.7041   -1.1056 O.3     1  UNL1       -0.3732
      3 O          -6.8095   -1.7965    1.6320 O.3     1  UNL1       -0.3917
      4 O           1.5054    0.8099   -2.6087 O.3     1  UNL1       -0.4941
      5 N          -2.5393    1.7296   -0.5793 N.ar    1  UNL1       -0.2593
      6 N           2.6511   -0.0149    0.2847 N.4     1  UNL1        0.2308
      7 C          -3.5817   -1.0970    0.1878 C.3     1  UNL1        0.0728
      8 C          -1.1415   -0.2325   -0.0614 C.3     1  UNL1        0.0224
      9 C          -2.1927   -0.9539    0.8332 C.3     1  UNL1       -0.0123
     10 C          -4.4808   -2.0092    1.0377 C.3     1  UNL1        0.0024
     11 C          -4.4284    0.1820    0.1498 C.3     1  UNL1       -0.0213
     12 C          -5.9002   -1.7207    0.5465 C.3     1  UNL1        0.0580
     13 C          -5.8625   -0.3127   -0.0491 C.3     1  UNL1       -0.0242
     14 C          -1.1858   -0.9535   -1.4364 C.3     1  UNL1       -0.0181
     15 C           0.2670   -0.4668    0.5390 C.3     1  UNL1       -0.0013
     16 C          -2.5969   -1.0429   -2.0073 C.3     1  UNL1        0.0492
     17 C          -1.3476    1.2945   -0.1120 C.ar    1  UNL1        0.0478
     18 C           1.3342    0.2337   -0.2898 C.3     1  UNL1       -0.0325
     19 C          -0.3286    2.1319    0.3127 C.ar    1  UNL1       -0.0398
     20 C          -0.5467    3.5039    0.2542 C.ar    1  UNL1       -0.0586
     21 C          -2.7149    3.0694   -0.6214 C.ar    1  UNL1        0.0279
     22 C           3.6886    0.6598   -0.4825 C.3     1  UNL1        0.0021
     23 C          -1.7599    3.9897   -0.2207 C.ar    1  UNL1       -0.0436
     24 C           3.7116    0.2030   -1.9169 C.ar    1  UNL1        0.0756
     25 C           2.7145    0.2802   -2.8644 C.ar    1  UNL1        0.1353
     26 C           3.1231   -0.2629   -4.1164 C.ar    1  UNL1       -0.0124
     27 C           4.4169   -0.7344   -4.0785 C.ar    1  UNL1       -0.0203
     28 C           0.3831    0.2875   -3.3335 C.3     1  UNL1        0.0788
     29 H          -6.8125   -2.6984    1.9889 H       1  UNL1        0.2098
     30 H           2.8328   -1.0186    0.2815 H       1  UNL1        0.2017
     31 H           2.6641    0.3464    1.2385 H       1  UNL1        0.2017
     32 H          -1.8254   -1.9333    1.0585 H       1  UNL1        0.0302
     33 H          -2.3210   -0.3471    1.7051 H       1  UNL1        0.0302
     34 H          -4.3853   -1.7715    2.0766 H       1  UNL1        0.0318
     35 H          -4.2197   -3.0421    0.9381 H       1  UNL1        0.0318
     36 H          -4.1288    0.8097   -0.6633 H       1  UNL1        0.0294
     37 H          -4.3200    0.7679    1.0386 H       1  UNL1        0.0294
     38 H          -6.2264   -2.4315   -0.1837 H       1  UNL1        0.0594
     39 H          -6.1063   -0.3414   -1.0906 H       1  UNL1        0.0291
     40 H          -6.5727    0.3346    0.4216 H       1  UNL1        0.0291
     41 H          -0.8016   -1.9448   -1.3159 H       1  UNL1        0.0296
     42 H          -0.5952   -0.3814   -2.1211 H       1  UNL1        0.0296
     43 H           0.4702   -1.5172    0.5562 H       1  UNL1        0.0326
     44 H           0.2867   -0.0660    1.5309 H       1  UNL1        0.0326
     45 H          -2.9625   -0.0540   -2.1899 H       1  UNL1        0.0560
     46 H          -2.5587   -1.6058   -2.9164 H       1  UNL1        0.0560
     47 H           1.3078   -0.1407   -1.2918 H       1  UNL1        0.0814
     48 H           1.1438    1.2866   -0.2920 H       1  UNL1        0.0814
     49 H           0.5641    1.7492    0.6616 H       1  UNL1        0.0636
     50 H           0.1889    4.1590    0.5620 H       1  UNL1        0.0619
     51 H          -3.6159    3.4287   -0.9738 H       1  UNL1        0.0829
     52 H           4.6391    0.4511   -0.0375 H       1  UNL1        0.0873
     53 H           3.4800    1.7092   -0.4715 H       1  UNL1        0.0873
     54 H          -1.9432    5.0039   -0.2731 H       1  UNL1        0.0633
     55 H           2.5206   -0.2988   -4.9534 H       1  UNL1        0.0659
     56 H           4.8977   -1.1651   -4.8837 H       1  UNL1        0.0694
     57 H          -0.5067    0.7987   -3.0302 H       1  UNL1        0.0660
     58 H           0.2814   -0.7578   -3.1286 H       1  UNL1        0.0660
     59 H           0.5373    0.4319   -4.3825 H       1  UNL1        0.0660
@<TRIPOS>UNITY_ATOM_ATTR
6 1
charge 1
@<TRIPOS>BOND
     1     1    24   ar
     2     1    27   ar
     3     2    16    1
     4     3    12    1
     5     3    29    1
     6     4    25    1
     7     4    28    1
     8     5    17   ar
     9     5    21   ar
    10     6    18    1
    11     6    22    1
    12     6    30    1
    13     6    31    1
    14     7     2    1
    15     7     9    1
    16     7    10    1
    17     7    11    1
    18     8     9    1
    19     8    14    1
    20     8    15    1
    21     8    17    1
    22     9    32    1
    23     9    33    1
    24    10    12    1
    25    10    34    1
    26    10    35    1
    27    11    13    1
    28    11    36    1
    29    11    37    1
    30    12    13    1
    31    12    38    1
    32    13    39    1
    33    13    40    1
    34    14    16    1
    35    14    41    1
    36    14    42    1
    37    15    18    1
    38    15    43    1
    39    15    44    1
    40    16    45    1
    41    16    46    1
    42    17    19   ar
    43    18    47    1
    44    18    48    1
    45    19    20   ar
    46    19    49    1
    47    20    23   ar
    48    20    50    1
    49    21    23   ar
    50    21    51    1
    51    22    24    1
    52    22    52    1
    53    22    53    1
    54    23    54    1
    55    24    25   ar
    56    25    26   ar
    57    26    27   ar
    58    26    55    1
    59    27    56    1
    60    28    57    1
    61    28    58    1
    62    28    59    1
@<TRIPOS>MOLECULE
154925832
 59 62 0 0 0
SMALL
GASTEIGER

@<TRIPOS>ATOM
      1 S           2.7266    2.5774    3.2842 S.2     1  UNL1       -0.0926
      2 O          -3.4780   -1.7041   -1.1056 O.3     1  UNL1       -0.3732
      3 O          -6.8095   -1.7965    1.6320 O.3     1  UNL1       -0.3917
      4 O           3.6423    0.8951   -0.0731 O.3     1  UNL1       -0.4941
      5 N          -1.5809    1.8341   -1.3295 N.ar    1  UNL1       -0.2593
      6 N           1.0858    1.6705   -0.3064 N.4     1  UNL1        0.2308
      7 C          -3.5817   -1.0970    0.1878 C.3     1  UNL1        0.0728
      8 C          -1.1415   -0.2325   -0.0614 C.3     1  UNL1        0.0224
      9 C          -2.1927   -0.9539    0.8332 C.3     1  UNL1       -0.0123
     10 C          -4.4808   -2.0092    1.0377 C.3     1  UNL1        0.0024
     11 C          -4.4284    0.1820    0.1498 C.3     1  UNL1       -0.0213
     12 C          -5.9002   -1.7207    0.5465 C.3     1  UNL1        0.0580
     13 C          -5.8625   -0.3127   -0.0491 C.3     1  UNL1       -0.0242
     14 C          -1.1858   -0.9535   -1.4364 C.3     1  UNL1       -0.0181
     15 C           0.2670   -0.4668    0.5390 C.3     1  UNL1       -0.0013
     16 C          -2.5969   -1.0429   -2.0073 C.3     1  UNL1        0.0492
     17 C          -1.3476    1.2945   -0.1120 C.ar    1  UNL1        0.0478
     18 C           1.3342    0.2337   -0.2898 C.3     1  UNL1       -0.0325
     19 C          -1.2863    2.0274    1.0623 C.ar    1  UNL1       -0.0398
     20 C          -1.4765    3.4025    0.9819 C.ar    1  UNL1       -0.0586
     21 C          -1.7610    3.1734   -1.3683 C.ar    1  UNL1        0.0279
     22 C           1.1302    2.2211    1.0408 C.3     1  UNL1        0.0021
     23 C          -1.7188    3.9942   -0.2528 C.ar    1  UNL1       -0.0436
     24 C           2.4749    2.0159    1.6862 C.ar    1  UNL1        0.0756
     25 C           3.6001    1.4147    1.1663 C.ar    1  UNL1        0.1353
     26 C           4.6829    1.4149    2.0920 C.ar    1  UNL1       -0.0124
     27 C           4.3444    2.0163    3.2843 C.ar    1  UNL1       -0.0203
     28 C           4.9033    0.9066   -0.7571 C.3     1  UNL1        0.0788
     29 H          -6.8125   -2.6984    1.9889 H       1  UNL1        0.2098
     30 H           0.1649    1.8456   -0.7085 H       1  UNL1        0.2017
     31 H           1.8104    2.1200   -0.8662 H       1  UNL1        0.2017
     32 H          -1.8254   -1.9333    1.0585 H       1  UNL1        0.0302
     33 H          -2.3210   -0.3471    1.7051 H       1  UNL1        0.0302
     34 H          -4.3853   -1.7715    2.0766 H       1  UNL1        0.0318
     35 H          -4.2197   -3.0421    0.9381 H       1  UNL1        0.0318
     36 H          -4.1288    0.8097   -0.6633 H       1  UNL1        0.0294
     37 H          -4.3200    0.7679    1.0386 H       1  UNL1        0.0294
     38 H          -6.2264   -2.4315   -0.1837 H       1  UNL1        0.0594
     39 H          -6.1063   -0.3414   -1.0906 H       1  UNL1        0.0291
     40 H          -6.5727    0.3346    0.4216 H       1  UNL1        0.0291
     41 H          -0.8016   -1.9448   -1.3159 H       1  UNL1        0.0296
     42 H          -0.5952   -0.3814   -2.1211 H       1  UNL1        0.0296
     43 H           0.4702   -1.5172    0.5562 H       1  UNL1        0.0326
     44 H           0.2867   -0.0660    1.5309 H       1  UNL1        0.0326
     45 H          -2.9625   -0.0540   -2.1899 H       1  UNL1        0.0560
     46 H          -2.5587   -1.6058   -2.9164 H       1  UNL1        0.0560
     47 H           2.2966    0.0449    0.1383 H       1  UNL1        0.0814
     48 H           1.3043   -0.1406   -1.2917 H       1  UNL1        0.0814
     49 H          -1.1050    1.5672    1.9681 H       1  UNL1        0.0636
     50 H          -1.4382    3.9816    1.8353 H       1  UNL1        0.0619
     51 H          -1.9410    3.6113   -2.2852 H       1  UNL1        0.0829
     52 H           0.3833    1.7392    1.6365 H       1  UNL1        0.0873
     53 H           0.9507    3.2739    0.9752 H       1  UNL1        0.0873
     54 H          -1.8627    5.0127   -0.3358 H       1  UNL1        0.0633
     55 H           5.6118    1.0119    1.8929 H       1  UNL1        0.0659
     56 H           4.9897    2.1168    4.0833 H       1  UNL1        0.0694
     57 H           4.7880    0.4651   -1.7250 H       1  UNL1        0.0660
     58 H           5.6200    0.3472   -0.1930 H       1  UNL1        0.0660
     59 H           5.2422    1.9159   -0.8634 H       1  UNL1        0.0660
@<TRIPOS>UNITY_ATOM_ATTR
6 1
charge 1
@<TRIPOS>BOND
     1     1    24   ar
     2     1    27   ar
     3     2    16    1
     4     3    12    1
     5     3    29    1
     6     4    25    1
     7     4    28    1
     8     5    17   ar
     9     5    21   ar
    10     6    18    1
    11     6    22    1
    12     6    30    1
    13     6    31    1
    14     7     2    1
    15     7     9    1
    16     7    10    1
    17     7    11    1
    18     8     9    1
    19     8    14    1
    20     8    15    1
    21     8    17    1
    22     9    32    1
    23     9    33    1
    24    10    12    1
    25    10    34    1
    26    10    35    1
    27    11    13    1
    28    11    36    1
    29    11    37    1
    30    12    13    1
    31    12    38    1
    32    13    39    1
    33    13    40    1
    34    14    16    1
    35    14    41    1
    36    14    42    1
    37    15    18    1
    38    15    43    1
    39    15    44    1
    40    16    45    1
    41    16    46    1
    42    17    19   ar
    43    18    47    1
    44    18    48    1
    45    19    20   ar
    46    19    49    1
    47    20    23   ar
    48    20    50    1
    49    21    23   ar
    50    21    51    1
    51    22    24    1
    52    22    52    1
    53    22    53    1
    54    23    54    1
    55    24    25   ar
    56    25    26   ar
    57    26    27   ar
    58    26    55    1
    59    27    56    1
    60    28    57    1
    61    28    58    1
    62    28    59    1
@<TRIPOS>MOLECULE
154925832
 59 62 0 0 0
SMALL
GASTEIGER

@<TRIPOS>ATOM
      1 S           3.3397   -0.1043    6.1195 S.2     1  UNL1       -0.0926
      2 O          -3.4780   -1.7041   -1.1056 O.3     1  UNL1       -0.3732
      3 O          -6.8095   -1.7965    1.6320 O.3     1  UNL1       -0.3917
      4 O           4.4874    0.3126    2.4522 O.3     1  UNL1       -0.4941
      5 N          -0.2395    2.0499   -0.2834 N.ar    1  UNL1       -0.2593
      6 N           1.6860   -0.1462    2.4978 N.4     1  UNL1        0.2308
      7 C          -3.5817   -1.0970    0.1878 C.3     1  UNL1        0.0728
      8 C          -1.1415   -0.2325   -0.0614 C.3     1  UNL1        0.0224
      9 C          -2.1927   -0.9539    0.8332 C.3     1  UNL1       -0.0123
     10 C          -4.4808   -2.0092    1.0377 C.3     1  UNL1        0.0024
     11 C          -4.4284    0.1820    0.1498 C.3     1  UNL1       -0.0213
     12 C          -5.9002   -1.7207    0.5465 C.3     1  UNL1        0.0580
     13 C          -5.8625   -0.3127   -0.0491 C.3     1  UNL1       -0.0242
     14 C          -1.1858   -0.9535   -1.4364 C.3     1  UNL1       -0.0181
     15 C           0.2670   -0.4668    0.5390 C.3     1  UNL1       -0.0013
     16 C          -2.5969   -1.0429   -2.0073 C.3     1  UNL1        0.0492
     17 C          -1.3476    1.2945   -0.1120 C.ar    1  UNL1        0.0478
     18 C           0.3478    0.0706    1.9607 C.3     1  UNL1       -0.0325
     19 C          -2.6265    1.8119    0.0171 C.ar    1  UNL1       -0.0398
     20 C          -2.7778    3.1932   -0.0330 C.ar    1  UNL1       -0.0586
     21 C          -0.4257    3.3881   -0.3272 C.ar    1  UNL1        0.0279
     22 C           1.7832    0.3454    3.8648 C.3     1  UNL1        0.0021
     23 C          -1.6614    4.0034   -0.2080 C.ar    1  UNL1       -0.0436
     24 C           3.1625    0.1475    4.4350 C.ar    1  UNL1        0.0756
     25 C           4.3747    0.1369    3.7805 C.ar    1  UNL1        0.1353
     26 C           5.4629   -0.0809    4.6735 C.ar    1  UNL1       -0.0124
     27 C           5.0414   -0.2285    5.9768 C.ar    1  UNL1       -0.0203
     28 C           5.5779   -0.3381    1.7849 C.3     1  UNL1        0.0788
     29 H          -6.8125   -2.6984    1.9889 H       1  UNL1        0.2098
     30 H           2.3632    0.3475    1.9164 H       1  UNL1        0.2017
     31 H           1.8790   -1.1478    2.4971 H       1  UNL1        0.2017
     32 H          -1.8254   -1.9333    1.0585 H       1  UNL1        0.0302
     33 H          -2.3210   -0.3471    1.7051 H       1  UNL1        0.0302
     34 H          -4.3853   -1.7715    2.0766 H       1  UNL1        0.0318
     35 H          -4.2197   -3.0421    0.9381 H       1  UNL1        0.0318
     36 H          -4.1288    0.8097   -0.6633 H       1  UNL1        0.0294
     37 H          -4.3200    0.7679    1.0386 H       1  UNL1        0.0294
     38 H          -6.2264   -2.4315   -0.1837 H       1  UNL1        0.0594
     39 H          -6.1063   -0.3414   -1.0906 H       1  UNL1        0.0291
     40 H          -6.5727    0.3346    0.4216 H       1  UNL1        0.0291
     41 H          -0.8016   -1.9448   -1.3159 H       1  UNL1        0.0296
     42 H          -0.5952   -0.3814   -2.1211 H       1  UNL1        0.0296
     43 H           0.9935    0.0336   -0.0665 H       1  UNL1        0.0326
     44 H           0.4588   -1.5192    0.5600 H       1  UNL1        0.0326
     45 H          -2.9625   -0.0540   -2.1899 H       1  UNL1        0.0560
     46 H          -2.5587   -1.6058   -2.9164 H       1  UNL1        0.0560
     47 H           0.1326    1.1188    1.9565 H       1  UNL1        0.0814
     48 H          -0.3647   -0.4424    2.5723 H       1  UNL1        0.0814
     49 H          -3.4411    1.1916    0.1463 H       1  UNL1        0.0636
     50 H          -3.7150    3.6155    0.0593 H       1  UNL1        0.0619
     51 H           0.4036    3.9884   -0.4574 H       1  UNL1        0.0829
     52 H           1.0783   -0.1818    4.4732 H       1  UNL1        0.0873
     53 H           1.5752    1.3950    3.8557 H       1  UNL1        0.0873
     54 H          -1.7504    5.0308   -0.2479 H       1  UNL1        0.0633
     55 H           6.4510   -0.1233    4.3788 H       1  UNL1        0.0659
     56 H           5.6765   -0.3944    6.7731 H       1  UNL1        0.0694
     57 H           5.5429   -0.1114    0.7398 H       1  UNL1        0.0660
     58 H           5.5003   -1.3962    1.9232 H       1  UNL1        0.0660
     59 H           6.5041    0.0080    2.1941 H       1  UNL1        0.0660
@<TRIPOS>UNITY_ATOM_ATTR
6 1
charge 1
@<TRIPOS>BOND
     1     1    24   ar
     2     1    27   ar
     3     2    16    1
     4     3    12    1
     5     3    29    1
     6     4    25    1
     7     4    28    1
     8     5    17   ar
     9     5    21   ar
    10     6    18    1
    11     6    22    1
    12     6    30    1
    13     6    31    1
    14     7     2    1
    15     7     9    1
    16     7    10    1
    17     7    11    1
    18     8     9    1
    19     8    14    1
    20     8    15    1
    21     8    17    1
    22     9    32    1
    23     9    33    1
    24    10    12    1
    25    10    34    1
    26    10    35    1
    27    11    13    1
    28    11    36    1
    29    11    37    1
    30    12    13    1
    31    12    38    1
    32    13    39    1
    33    13    40    1
    34    14    16    1
    35    14    41    1
    36    14    42    1
    37    15    18    1
    38    15    43    1
    39    15    44    1
    40    16    45    1
    41    16    46    1
    42    17    19   ar
    43    18    47    1
    44    18    48    1
    45    19    20   ar
    46    19    49    1
    47    20    23   ar
    48    20    50    1
    49    21    23   ar
    50    21    51    1
    51    22    24    1
    52    22    52    1
    53    22    53    1
    54    23    54    1
    55    24    25   ar
    56    25    26   ar
    57    26    27   ar
    58    26    55    1
    59    27    56    1
    60    28    57    1
    61    28    58    1
    62    28    59    1
@<TRIPOS>MOLECULE
154925832
 59 62 0 0 0
SMALL
GASTEIGER

@<TRIPOS>ATOM
      1 S          -0.0021   -3.5825    2.7604 S.2     1  UNL1       -0.0926
      2 O          -3.4780   -1.7041   -1.1056 O.3     1  UNL1       -0.3732
      3 O          -6.8095   -1.7965    1.6320 O.3     1  UNL1       -0.3917
      4 O           1.3927   -1.2328    5.4942 O.3     1  UNL1       -0.4941
      5 N          -0.6967    2.0248    0.8212 N.ar    1  UNL1       -0.2593
      6 N           1.9227   -2.1473    1.1614 N.4     1  UNL1        0.2308
      7 C          -3.5817   -1.0970    0.1878 C.3     1  UNL1        0.0728
      8 C          -1.1415   -0.2325   -0.0614 C.3     1  UNL1        0.0224
      9 C          -2.1927   -0.9539    0.8332 C.3     1  UNL1       -0.0123
     10 C          -4.4808   -2.0092    1.0377 C.3     1  UNL1        0.0024
     11 C          -4.4284    0.1820    0.1498 C.3     1  UNL1       -0.0213
     12 C          -5.9002   -1.7207    0.5465 C.3     1  UNL1        0.0580
     13 C          -5.8625   -0.3127   -0.0491 C.3     1  UNL1       -0.0242
     14 C          -1.1858   -0.9535   -1.4364 C.3     1  UNL1       -0.0181
     15 C           0.2670   -0.4668    0.5390 C.3     1  UNL1       -0.0013
     16 C          -2.5969   -1.0429   -2.0073 C.3     1  UNL1        0.0492
     17 C          -1.3476    1.2945   -0.1120 C.ar    1  UNL1        0.0478
     18 C           0.6009   -1.9512    0.5778 C.3     1  UNL1       -0.0325
     19 C          -2.1696    1.8370   -1.0866 C.ar    1  UNL1       -0.0398
     20 C          -2.3341    3.2176   -1.1046 C.ar    1  UNL1       -0.0586
     21 C          -0.8807    3.3631    0.7724 C.ar    1  UNL1        0.0279
     22 C           1.9686   -1.6410    2.5258 C.3     1  UNL1        0.0021
     23 C          -1.6810    4.0023   -0.1607 C.ar    1  UNL1       -0.0436
     24 C           0.9851   -2.3484    3.4197 C.ar    1  UNL1        0.0756
     25 C           0.7377   -2.1494    4.7602 C.ar    1  UNL1        0.1353
     26 C          -0.2754   -3.0216    5.2524 C.ar    1  UNL1       -0.0124
     27 C          -0.7641   -3.8541    4.2696 C.ar    1  UNL1       -0.0203
     28 C           1.8613   -0.0544    4.8236 C.3     1  UNL1        0.0788
     29 H          -6.8125   -2.6984    1.9889 H       1  UNL1        0.2098
     30 H           2.6135   -1.6517    0.5979 H       1  UNL1        0.2017
     31 H           2.1268   -3.1466    1.1776 H       1  UNL1        0.2017
     32 H          -1.8254   -1.9333    1.0585 H       1  UNL1        0.0302
     33 H          -2.3210   -0.3471    1.7051 H       1  UNL1        0.0302
     34 H          -4.3853   -1.7715    2.0766 H       1  UNL1        0.0318
     35 H          -4.2197   -3.0421    0.9381 H       1  UNL1        0.0318
     36 H          -4.1288    0.8097   -0.6633 H       1  UNL1        0.0294
     37 H          -4.3200    0.7679    1.0386 H       1  UNL1        0.0294
     38 H          -6.2264   -2.4315   -0.1837 H       1  UNL1        0.0594
     39 H          -6.1063   -0.3414   -1.0906 H       1  UNL1        0.0291
     40 H          -6.5727    0.3346    0.4216 H       1  UNL1        0.0291
     41 H          -0.8016   -1.9448   -1.3159 H       1  UNL1        0.0296
     42 H          -0.5952   -0.3814   -2.1211 H       1  UNL1        0.0296
     43 H           0.2928   -0.0758    1.5346 H       1  UNL1        0.0326
     44 H           0.9878    0.0297   -0.0764 H       1  UNL1        0.0326
     45 H          -2.9625   -0.0540   -2.1899 H       1  UNL1        0.0560
     46 H          -2.5587   -1.6058   -2.9164 H       1  UNL1        0.0560
     47 H          -0.1281   -2.4635    1.1702 H       1  UNL1        0.0814
     48 H           0.5947   -2.3399   -0.4191 H       1  UNL1        0.0814
     49 H          -2.6448    1.2353   -1.7775 H       1  UNL1        0.0636
     50 H          -2.9386    3.6581   -1.8157 H       1  UNL1        0.0619
     51 H          -0.3952    3.9445    1.4733 H       1  UNL1        0.0829
     52 H           1.7374   -0.5963    2.5153 H       1  UNL1        0.0873
     53 H           2.9517   -1.8141    2.9113 H       1  UNL1        0.0873
     54 H          -1.7889    5.0286   -0.1553 H       1  UNL1        0.0633
     55 H          -0.6047   -3.0289    6.2305 H       1  UNL1        0.0659
     56 H          -1.5023   -4.5583    4.4245 H       1  UNL1        0.0694
     57 H           2.3600    0.5809    5.5256 H       1  UNL1        0.0660
     58 H           1.0303    0.4678    4.3976 H       1  UNL1        0.0660
     59 H           2.5433   -0.3329    4.0476 H       1  UNL1        0.0660
@<TRIPOS>UNITY_ATOM_ATTR
6 1
charge 1
@<TRIPOS>BOND
     1     1    24   ar
     2     1    27   ar
     3     2    16    1
     4     3    12    1
     5     3    29    1
     6     4    25    1
     7     4    28    1
     8     5    17   ar
     9     5    21   ar
    10     6    18    1
    11     6    22    1
    12     6    30    1
    13     6    31    1
    14     7     2    1
    15     7     9    1
    16     7    10    1
    17     7    11    1
    18     8     9    1
    19     8    14    1
    20     8    15    1
    21     8    17    1
    22     9    32    1
    23     9    33    1
    24    10    12    1
    25    10    34    1
    26    10    35    1
    27    11    13    1
    28    11    36    1
    29    11    37    1
    30    12    13    1
    31    12    38    1
    32    13    39    1
    33    13    40    1
    34    14    16    1
    35    14    41    1
    36    14    42    1
    37    15    18    1
    38    15    43    1
    39    15    44    1
    40    16    45    1
    41    16    46    1
    42    17    19   ar
    43    18    47    1
    44    18    48    1
    45    19    20   ar
    46    19    49    1
    47    20    23   ar
    48    20    50    1
    49    21    23   ar
    50    21    51    1
    51    22    24    1
    52    22    52    1
    53    22    53    1
    54    23    54    1
    55    24    25   ar
    56    25    26   ar
    57    26    27   ar
    58    26    55    1
    59    27    56    1
    60    28    57    1
    61    28    58    1
    62    28    59    1
@<TRIPOS>MOLECULE
154925832
 59 62 0 0 0
SMALL
GASTEIGER

@<TRIPOS>ATOM
      1 S           3.0728   -1.5246   -0.0640 S.2     1  UNL1       -0.0926
      2 O          -3.4780   -1.7041   -1.1056 O.3     1  UNL1       -0.3732
      3 O          -6.8095   -1.7965    1.6320 O.3     1  UNL1       -0.3917
      4 O           0.3048   -3.8141    1.3631 O.3     1  UNL1       -0.4941
      5 N          -0.9732    1.9188   -1.2513 N.ar    1  UNL1       -0.2593
      6 N           1.6860   -0.1462    2.4978 N.4     1  UNL1        0.2308
      7 C          -3.5817   -1.0970    0.1878 C.3     1  UNL1        0.0728
      8 C          -1.1415   -0.2325   -0.0614 C.3     1  UNL1        0.0224
      9 C          -2.1927   -0.9539    0.8332 C.3     1  UNL1       -0.0123
     10 C          -4.4808   -2.0092    1.0377 C.3     1  UNL1        0.0024
     11 C          -4.4284    0.1820    0.1498 C.3     1  UNL1       -0.0213
     12 C          -5.9002   -1.7207    0.5465 C.3     1  UNL1        0.0580
     13 C          -5.8625   -0.3127   -0.0491 C.3     1  UNL1       -0.0242
     14 C          -1.1858   -0.9535   -1.4364 C.3     1  UNL1       -0.0181
     15 C           0.2670   -0.4668    0.5390 C.3     1  UNL1       -0.0013
     16 C          -2.5969   -1.0429   -2.0073 C.3     1  UNL1        0.0492
     17 C          -1.3476    1.2945   -0.1120 C.ar    1  UNL1        0.0478
     18 C           0.3478    0.0706    1.9607 C.3     1  UNL1       -0.0325
     19 C          -1.8934    1.9429    0.9841 C.ar    1  UNL1       -0.0398
     20 C          -2.0661    3.3204    0.9060 C.ar    1  UNL1       -0.0586
     21 C          -1.1561    3.2576   -1.2905 C.ar    1  UNL1        0.0279
     22 C           2.0198   -1.5635    2.5046 C.3     1  UNL1        0.0021
     23 C          -1.6928    3.9978   -0.2495 C.ar    1  UNL1       -0.0436
     24 C           2.0034   -2.1500    1.1180 C.ar    1  UNL1        0.0756
     25 C           1.2196   -3.1673    0.6195 C.ar    1  UNL1        0.1353
     26 C           1.5009   -3.4370   -0.7507 C.ar    1  UNL1       -0.0124
     27 C           2.4889   -2.6155   -1.2476 C.ar    1  UNL1       -0.0203
     28 C          -0.8534   -4.3306    0.6925 C.3     1  UNL1        0.0788
     29 H          -6.8125   -2.6984    1.9889 H       1  UNL1        0.2098
     30 H           1.7245    0.2105    3.4526 H       1  UNL1        0.2017
     31 H           2.3576    0.3440    1.9069 H       1  UNL1        0.2017
     32 H          -1.8254   -1.9333    1.0585 H       1  UNL1        0.0302
     33 H          -2.3210   -0.3471    1.7051 H       1  UNL1        0.0302
     34 H          -4.3853   -1.7715    2.0766 H       1  UNL1        0.0318
     35 H          -4.2197   -3.0421    0.9381 H       1  UNL1        0.0318
     36 H          -4.1288    0.8097   -0.6633 H       1  UNL1        0.0294
     37 H          -4.3200    0.7679    1.0386 H       1  UNL1        0.0294
     38 H          -6.2264   -2.4315   -0.1837 H       1  UNL1        0.0594
     39 H          -6.1063   -0.3414   -1.0906 H       1  UNL1        0.0291
     40 H          -6.5727    0.3346    0.4216 H       1  UNL1        0.0291
     41 H          -0.8016   -1.9448   -1.3159 H       1  UNL1        0.0296
     42 H          -0.5952   -0.3814   -2.1211 H       1  UNL1        0.0296
     43 H           0.9935    0.0336   -0.0665 H       1  UNL1        0.0326
     44 H           0.4588   -1.5192    0.5600 H       1  UNL1        0.0326
     45 H          -2.9625   -0.0540   -2.1899 H       1  UNL1        0.0560
     46 H          -2.5587   -1.6058   -2.9164 H       1  UNL1        0.0560
     47 H           0.1326    1.1188    1.9565 H       1  UNL1        0.0814
     48 H          -0.3647   -0.4424    2.5723 H       1  UNL1        0.0814
     49 H          -2.1633    1.4199    1.8319 H       1  UNL1        0.0636
     50 H          -2.4697    3.8380    1.7025 H       1  UNL1        0.0619
     51 H          -0.8790    3.7592   -2.1488 H       1  UNL1        0.0829
     52 H           1.3067   -2.0841    3.1091 H       1  UNL1        0.0873
     53 H           3.0092   -1.6695    2.8982 H       1  UNL1        0.0873
     54 H          -1.8117    5.0198   -0.3292 H       1  UNL1        0.0633
     55 H           1.0210   -4.1625   -1.3059 H       1  UNL1        0.0659
     56 H           2.8362   -2.6532   -2.2187 H       1  UNL1        0.0694
     57 H          -1.4896   -4.8165    1.4026 H       1  UNL1        0.0660
     58 H          -0.5492   -5.0341   -0.0539 H       1  UNL1        0.0660
     59 H          -1.3854   -3.5263    0.2288 H       1  UNL1        0.0660
@<TRIPOS>UNITY_ATOM_ATTR
6 1
charge 1
@<TRIPOS>BOND
     1     1    24   ar
     2     1    27   ar
     3     2    16    1
     4     3    12    1
     5     3    29    1
     6     4    25    1
     7     4    28    1
     8     5    17   ar
     9     5    21   ar
    10     6    18    1
    11     6    22    1
    12     6    30    1
    13     6    31    1
    14     7     2    1
    15     7     9    1
    16     7    10    1
    17     7    11    1
    18     8     9    1
    19     8    14    1
    20     8    15    1
    21     8    17    1
    22     9    32    1
    23     9    33    1
    24    10    12    1
    25    10    34    1
    26    10    35    1
    27    11    13    1
    28    11    36    1
    29    11    37    1
    30    12    13    1
    31    12    38    1
    32    13    39    1
    33    13    40    1
    34    14    16    1
    35    14    41    1
    36    14    42    1
    37    15    18    1
    38    15    43    1
    39    15    44    1
    40    16    45    1
    41    16    46    1
    42    17    19   ar
    43    18    47    1
    44    18    48    1
    45    19    20   ar
    46    19    49    1
    47    20    23   ar
    48    20    50    1
    49    21    23   ar
    50    21    51    1
    51    22    24    1
    52    22    52    1
    53    22    53    1
    54    23    54    1
    55    24    25   ar
    56    25    26   ar
    57    26    27   ar
    58    26    55    1
    59    27    56    1
    60    28    57    1
    61    28    58    1
    62    28    59    1
@<TRIPOS>MOLECULE
154925832
 59 62 0 0 0
SMALL
GASTEIGER

@<TRIPOS>ATOM
      1 S           2.9683   -1.5674   -0.0782 S.2     1  UNL1       -0.0926
      2 O          -3.4780   -1.7041   -1.1056 O.3     1  UNL1       -0.3732
      3 O          -6.8095   -1.7965    1.6320 O.3     1  UNL1       -0.3917
      4 O           2.2102    2.1412   -0.8601 O.3     1  UNL1       -0.4941
      5 N          -1.8975    1.8680    0.9819 N.ar    1  UNL1       -0.2593
      6 N           1.6860   -0.1462    2.4978 N.4     1  UNL1        0.2308
      7 C          -3.5817   -1.0970    0.1878 C.3     1  UNL1        0.0728
      8 C          -1.1415   -0.2325   -0.0614 C.3     1  UNL1        0.0224
      9 C          -2.1927   -0.9539    0.8332 C.3     1  UNL1       -0.0123
     10 C          -4.4808   -2.0092    1.0377 C.3     1  UNL1        0.0024
     11 C          -4.4284    0.1820    0.1498 C.3     1  UNL1       -0.0213
     12 C          -5.9002   -1.7207    0.5465 C.3     1  UNL1        0.0580
     13 C          -5.8625   -0.3127   -0.0491 C.3     1  UNL1       -0.0242
     14 C          -1.1858   -0.9535   -1.4364 C.3     1  UNL1       -0.0181
     15 C           0.2670   -0.4668    0.5390 C.3     1  UNL1       -0.0013
     16 C          -2.5969   -1.0429   -2.0073 C.3     1  UNL1        0.0492
     17 C          -1.3476    1.2945   -0.1120 C.ar    1  UNL1        0.0478
     18 C           0.3478    0.0706    1.9607 C.3     1  UNL1       -0.0325
     19 C          -0.9698    1.9936   -1.2471 C.ar    1  UNL1       -0.0398
     20 C          -1.1692    3.3697   -1.2603 C.ar    1  UNL1       -0.0586
     21 C          -2.0760    3.2071    0.9324 C.ar    1  UNL1        0.0279
     22 C           2.6856    0.5476    1.6980 C.3     1  UNL1        0.0021
     23 C          -1.7324    3.9956   -0.1539 C.ar    1  UNL1       -0.0436
     24 C           2.6773    0.0846    0.2654 C.ar    1  UNL1        0.0756
     25 C           2.4614    0.8204   -0.8791 C.ar    1  UNL1        0.1353
     26 C           2.5357    0.0173   -2.0533 C.ar    1  UNL1       -0.0124
     27 C           2.8056   -1.3018   -1.7619 C.ar    1  UNL1       -0.0203
     28 C           2.1713    2.7930    0.4173 C.3     1  UNL1        0.0788
     29 H          -6.8125   -2.6984    1.9889 H       1  UNL1        0.2098
     30 H           1.8897   -1.1457    2.4933 H       1  UNL1        0.2017
     31 H           1.7184    0.2198    3.4493 H       1  UNL1        0.2017
     32 H          -1.8254   -1.9333    1.0585 H       1  UNL1        0.0302
     33 H          -2.3210   -0.3471    1.7051 H       1  UNL1        0.0302
     34 H          -4.3853   -1.7715    2.0766 H       1  UNL1        0.0318
     35 H          -4.2197   -3.0421    0.9381 H       1  UNL1        0.0318
     36 H          -4.1288    0.8097   -0.6633 H       1  UNL1        0.0294
     37 H          -4.3200    0.7679    1.0386 H       1  UNL1        0.0294
     38 H          -6.2264   -2.4315   -0.1837 H       1  UNL1        0.0594
     39 H          -6.1063   -0.3414   -1.0906 H       1  UNL1        0.0291
     40 H          -6.5727    0.3346    0.4216 H       1  UNL1        0.0291
     41 H          -0.8016   -1.9448   -1.3159 H       1  UNL1        0.0296
     42 H          -0.5952   -0.3814   -2.1211 H       1  UNL1        0.0296
     43 H           0.9935    0.0336   -0.0665 H       1  UNL1        0.0326
     44 H           0.4588   -1.5192    0.5600 H       1  UNL1        0.0326
     45 H          -2.9625   -0.0540   -2.1899 H       1  UNL1        0.0560
     46 H          -2.5587   -1.6058   -2.9164 H       1  UNL1        0.0560
     47 H           0.1326    1.1188    1.9565 H       1  UNL1        0.0814
     48 H          -0.3647   -0.4424    2.5723 H       1  UNL1        0.0814
     49 H          -0.5535    1.5083   -2.0572 H       1  UNL1        0.0636
     50 H          -0.9002    3.9242   -2.0881 H       1  UNL1        0.0619
     51 H          -2.4939    3.6706    1.7543 H       1  UNL1        0.0829
     52 H           3.6529    0.3620    2.1161 H       1  UNL1        0.0873
     53 H           2.4542    1.5922    1.7107 H       1  UNL1        0.0873
     54 H          -1.8897    5.0155   -0.1421 H       1  UNL1        0.0633
     55 H           2.4029    0.3809   -3.0099 H       1  UNL1        0.0659
     56 H           2.8989   -2.0426   -2.4744 H       1  UNL1        0.0694
     57 H           1.9632    3.8337    0.2805 H       1  UNL1        0.0660
     58 H           3.1171    2.6794    0.9045 H       1  UNL1        0.0660
     59 H           1.4046    2.3521    1.0196 H       1  UNL1        0.0660
@<TRIPOS>UNITY_ATOM_ATTR
6 1
charge 1
@<TRIPOS>BOND
     1     1    24   ar
     2     1    27   ar
     3     2    16    1
     4     3    12    1
     5     3    29    1
     6     4    25    1
     7     4    28    1
     8     5    17   ar
     9     5    21   ar
    10     6    18    1
    11     6    22    1
    12     6    30    1
    13     6    31    1
    14     7     2    1
    15     7     9    1
    16     7    10    1
    17     7    11    1
    18     8     9    1
    19     8    14    1
    20     8    15    1
    21     8    17    1
    22     9    32    1
    23     9    33    1
    24    10    12    1
    25    10    34    1
    26    10    35    1
    27    11    13    1
    28    11    36    1
    29    11    37    1
    30    12    13    1
    31    12    38    1
    32    13    39    1
    33    13    40    1
    34    14    16    1
    35    14    41    1
    36    14    42    1
    37    15    18    1
    38    15    43    1
    39    15    44    1
    40    16    45    1
    41    16    46    1
    42    17    19   ar
    43    18    47    1
    44    18    48    1
    45    19    20   ar
    46    19    49    1
    47    20    23   ar
    48    20    50    1
    49    21    23   ar
    50    21    51    1
    51    22    24    1
    52    22    52    1
    53    22    53    1
    54    23    54    1
    55    24    25   ar
    56    25    26   ar
    57    26    27   ar
    58    26    55    1
    59    27    56    1
    60    28    57    1
    61    28    58    1
    62    28    59    1
@<TRIPOS>MOLECULE
154925832
 59 62 0 0 0
SMALL
GASTEIGER

@<TRIPOS>ATOM
      1 S           2.4973    2.9023    3.1568 S.2     1  UNL1       -0.0926
      2 O          -3.4780   -1.7041   -1.1056 O.3     1  UNL1       -0.3732
      3 O          -6.8095   -1.7965    1.6320 O.3     1  UNL1       -0.3917
      4 O           2.1232    2.4032   -0.6578 O.3     1  UNL1       -0.4941
      5 N          -2.3814    1.7902    0.6045 N.ar    1  UNL1       -0.2593
      6 N           1.6860   -0.1462    2.4978 N.4     1  UNL1        0.2308
      7 C          -3.5817   -1.0970    0.1878 C.3     1  UNL1        0.0728
      8 C          -1.1415   -0.2325   -0.0614 C.3     1  UNL1        0.0224
      9 C          -2.1927   -0.9539    0.8332 C.3     1  UNL1       -0.0123
     10 C          -4.4808   -2.0092    1.0377 C.3     1  UNL1        0.0024
     11 C          -4.4284    0.1820    0.1498 C.3     1  UNL1       -0.0213
     12 C          -5.9002   -1.7207    0.5465 C.3     1  UNL1        0.0580
     13 C          -5.8625   -0.3127   -0.0491 C.3     1  UNL1       -0.0242
     14 C          -1.1858   -0.9535   -1.4364 C.3     1  UNL1       -0.0181
     15 C           0.2670   -0.4668    0.5390 C.3     1  UNL1       -0.0013
     16 C          -2.5969   -1.0429   -2.0073 C.3     1  UNL1        0.0492
     17 C          -1.3476    1.2945   -0.1120 C.ar    1  UNL1        0.0478
     18 C           0.3478    0.0706    1.9607 C.3     1  UNL1       -0.0325
     19 C          -0.4864    2.0714   -0.8701 C.ar    1  UNL1       -0.0398
     20 C          -0.6998    3.4452   -0.8943 C.ar    1  UNL1       -0.0586
     21 C          -2.5576    3.1296    0.5569 C.ar    1  UNL1        0.0279
     22 C           2.6856    0.5476    1.6980 C.3     1  UNL1        0.0021
     23 C          -1.7531    3.9923   -0.1700 C.ar    1  UNL1       -0.0436
     24 C           2.4556    2.0354    1.6807 C.ar    1  UNL1        0.0756
     25 C           2.2015    2.8579    0.6052 C.ar    1  UNL1        0.1353
     26 C           2.0392    4.2175    0.9982 C.ar    1  UNL1       -0.0124
     27 C           2.1752    4.3827    2.3591 C.ar    1  UNL1       -0.0203
     28 C           2.5168    3.2937   -1.7114 C.3     1  UNL1        0.0788
     29 H          -6.8125   -2.6984    1.9889 H       1  UNL1        0.2098
     30 H           1.8897   -1.1457    2.4933 H       1  UNL1        0.2017
     31 H           1.7184    0.2198    3.4493 H       1  UNL1        0.2017
     32 H          -1.8254   -1.9333    1.0585 H       1  UNL1        0.0302
     33 H          -2.3210   -0.3471    1.7051 H       1  UNL1        0.0302
     34 H          -4.3853   -1.7715    2.0766 H       1  UNL1        0.0318
     35 H          -4.2197   -3.0421    0.9381 H       1  UNL1        0.0318
     36 H          -4.1288    0.8097   -0.6633 H       1  UNL1        0.0294
     37 H          -4.3200    0.7679    1.0386 H       1  UNL1        0.0294
     38 H          -6.2264   -2.4315   -0.1837 H       1  UNL1        0.0594
     39 H          -6.1063   -0.3414   -1.0906 H       1  UNL1        0.0291
     40 H          -6.5727    0.3346    0.4216 H       1  UNL1        0.0291
     41 H          -0.8016   -1.9448   -1.3159 H       1  UNL1        0.0296
     42 H          -0.5952   -0.3814   -2.1211 H       1  UNL1        0.0296
     43 H           0.9935    0.0336   -0.0665 H       1  UNL1        0.0326
     44 H           0.4588   -1.5192    0.5600 H       1  UNL1        0.0326
     45 H          -2.9625   -0.0540   -2.1899 H       1  UNL1        0.0560
     46 H          -2.5587   -1.6058   -2.9164 H       1  UNL1        0.0560
     47 H           0.1326    1.1188    1.9565 H       1  UNL1        0.0814
     48 H          -0.3647   -0.4424    2.5723 H       1  UNL1        0.0814
     49 H           0.2891    1.6438   -1.4000 H       1  UNL1        0.0636
     50 H          -0.0789    4.0563   -1.4475 H       1  UNL1        0.0619
     51 H          -3.3396    3.5346    1.0950 H       1  UNL1        0.0829
     52 H           2.6425    0.1790    0.6944 H       1  UNL1        0.0873
     53 H           3.6452    0.3650    2.1348 H       1  UNL1        0.0873
     54 H          -1.9302    5.0089   -0.1738 H       1  UNL1        0.0633
     55 H           1.8427    4.9882    0.3406 H       1  UNL1        0.0659
     56 H           2.0927    5.2916    2.8409 H       1  UNL1        0.0694
     57 H           2.4034    2.8020   -2.6549 H       1  UNL1        0.0660
     58 H           3.5403    3.5752   -1.5766 H       1  UNL1        0.0660
     59 H           1.9005    4.1680   -1.6884 H       1  UNL1        0.0660
@<TRIPOS>UNITY_ATOM_ATTR
6 1
charge 1
@<TRIPOS>BOND
     1     1    24   ar
     2     1    27   ar
     3     2    16    1
     4     3    12    1
     5     3    29    1
     6     4    25    1
     7     4    28    1
     8     5    17   ar
     9     5    21   ar
    10     6    18    1
    11     6    22    1
    12     6    30    1
    13     6    31    1
    14     7     2    1
    15     7     9    1
    16     7    10    1
    17     7    11    1
    18     8     9    1
    19     8    14    1
    20     8    15    1
    21     8    17    1
    22     9    32    1
    23     9    33    1
    24    10    12    1
    25    10    34    1
    26    10    35    1
    27    11    13    1
    28    11    36    1
    29    11    37    1
    30    12    13    1
    31    12    38    1
    32    13    39    1
    33    13    40    1
    34    14    16    1
    35    14    41    1
    36    14    42    1
    37    15    18    1
    38    15    43    1
    39    15    44    1
    40    16    45    1
    41    16    46    1
    42    17    19   ar
    43    18    47    1
    44    18    48    1
    45    19    20   ar
    46    19    49    1
    47    20    23   ar
    48    20    50    1
    49    21    23   ar
    50    21    51    1
    51    22    24    1
    52    22    52    1
    53    22    53    1
    54    23    54    1
    55    24    25   ar
    56    25    26   ar
    57    26    27   ar
    58    26    55    1
    59    27    56    1
    60    28    57    1
    61    28    58    1
    62    28    59    1
@<TRIPOS>MOLECULE
154925832
 59 62 0 0 0
SMALL
GASTEIGER

@<TRIPOS>ATOM
      1 S           0.2987    0.3439    3.5156 S.2     1  UNL1       -0.0926
      2 O          -3.4780   -1.7041   -1.1056 O.3     1  UNL1       -0.3732
      3 O          -6.8095   -1.7965    1.6320 O.3     1  UNL1       -0.3917
      4 O           3.3784    0.7241    1.2110 O.3     1  UNL1       -0.4941
      5 N          -2.5393    1.7296   -0.5793 N.ar    1  UNL1       -0.2593
      6 N           1.9227   -2.1473    1.1614 N.4     1  UNL1        0.2308
      7 C          -3.5817   -1.0970    0.1878 C.3     1  UNL1        0.0728
      8 C          -1.1415   -0.2325   -0.0614 C.3     1  UNL1        0.0224
      9 C          -2.1927   -0.9539    0.8332 C.3     1  UNL1       -0.0123
     10 C          -4.4808   -2.0092    1.0377 C.3     1  UNL1        0.0024
     11 C          -4.4284    0.1820    0.1498 C.3     1  UNL1       -0.0213
     12 C          -5.9002   -1.7207    0.5465 C.3     1  UNL1        0.0580
     13 C          -5.8625   -0.3127   -0.0491 C.3     1  UNL1       -0.0242
     14 C          -1.1858   -0.9535   -1.4364 C.3     1  UNL1       -0.0181
     15 C           0.2670   -0.4668    0.5390 C.3     1  UNL1       -0.0013
     16 C          -2.5969   -1.0429   -2.0073 C.3     1  UNL1        0.0492
     17 C          -1.3476    1.2945   -0.1120 C.ar    1  UNL1        0.0478
     18 C           0.6009   -1.9512    0.5778 C.3     1  UNL1       -0.0325
     19 C          -0.3286    2.1319    0.3127 C.ar    1  UNL1       -0.0398
     20 C          -0.5467    3.5039    0.2542 C.ar    1  UNL1       -0.0586
     21 C          -2.7149    3.0694   -0.6214 C.ar    1  UNL1        0.0279
     22 C           1.9686   -1.6410    2.5258 C.3     1  UNL1        0.0021
     23 C          -1.7599    3.9897   -0.2207 C.ar    1  UNL1       -0.0436
     24 C           1.6436   -0.1723    2.5900 C.ar    1  UNL1        0.0756
     25 C           2.2922    0.8833    1.9875 C.ar    1  UNL1        0.1353
     26 C           1.6771    2.1320    2.2900 C.ar    1  UNL1       -0.0124
     27 C           0.5816    1.9837    3.1120 C.ar    1  UNL1       -0.0203
     28 C           4.2416   -0.3863    1.4936 C.3     1  UNL1        0.0788
     29 H          -6.8125   -2.6984    1.9889 H       1  UNL1        0.2098
     30 H           2.6135   -1.6517    0.5979 H       1  UNL1        0.2017
     31 H           2.1268   -3.1466    1.1776 H       1  UNL1        0.2017
     32 H          -1.8254   -1.9333    1.0585 H       1  UNL1        0.0302
     33 H          -2.3210   -0.3471    1.7051 H       1  UNL1        0.0302
     34 H          -4.3853   -1.7715    2.0766 H       1  UNL1        0.0318
     35 H          -4.2197   -3.0421    0.9381 H       1  UNL1        0.0318
     36 H          -4.1288    0.8097   -0.6633 H       1  UNL1        0.0294
     37 H          -4.3200    0.7679    1.0386 H       1  UNL1        0.0294
     38 H          -6.2264   -2.4315   -0.1837 H       1  UNL1        0.0594
     39 H          -6.1063   -0.3414   -1.0906 H       1  UNL1        0.0291
     40 H          -6.5727    0.3346    0.4216 H       1  UNL1        0.0291
     41 H          -0.8016   -1.9448   -1.3159 H       1  UNL1        0.0296
     42 H          -0.5952   -0.3814   -2.1211 H       1  UNL1        0.0296
     43 H           0.2928   -0.0758    1.5346 H       1  UNL1        0.0326
     44 H           0.9878    0.0297   -0.0764 H       1  UNL1        0.0326
     45 H          -2.9625   -0.0540   -2.1899 H       1  UNL1        0.0560
     46 H          -2.5587   -1.6058   -2.9164 H       1  UNL1        0.0560
     47 H          -0.1281   -2.4635    1.1702 H       1  UNL1        0.0814
     48 H           0.5947   -2.3399   -0.4191 H       1  UNL1        0.0814
     49 H           0.5641    1.7492    0.6616 H       1  UNL1        0.0636
     50 H           0.1889    4.1590    0.5620 H       1  UNL1        0.0619
     51 H          -3.6159    3.4287   -0.9738 H       1  UNL1        0.0829
     52 H           2.9516   -1.7954    2.9194 H       1  UNL1        0.0873
     53 H           1.2362   -2.1685    3.1005 H       1  UNL1        0.0873
     54 H          -1.9432    5.0039   -0.2731 H       1  UNL1        0.0633
     55 H           2.0127    3.0411    1.9350 H       1  UNL1        0.0659
     56 H           0.0000    2.7684    3.4452 H       1  UNL1        0.0694
     57 H           5.0583   -0.3881    0.8021 H       1  UNL1        0.0660
     58 H           3.6915   -1.2990    1.3984 H       1  UNL1        0.0660
     59 H           4.6191   -0.2998    2.4911 H       1  UNL1        0.0660
@<TRIPOS>UNITY_ATOM_ATTR
6 1
charge 1
@<TRIPOS>BOND
     1     1    24   ar
     2     1    27   ar
     3     2    16    1
     4     3    12    1
     5     3    29    1
     6     4    25    1
     7     4    28    1
     8     5    17   ar
     9     5    21   ar
    10     6    18    1
    11     6    22    1
    12     6    30    1
    13     6    31    1
    14     7     2    1
    15     7     9    1
    16     7    10    1
    17     7    11    1
    18     8     9    1
    19     8    14    1
    20     8    15    1
    21     8    17    1
    22     9    32    1
    23     9    33    1
    24    10    12    1
    25    10    34    1
    26    10    35    1
    27    11    13    1
    28    11    36    1
    29    11    37    1
    30    12    13    1
    31    12    38    1
    32    13    39    1
    33    13    40    1
    34    14    16    1
    35    14    41    1
    36    14    42    1
    37    15    18    1
    38    15    43    1
    39    15    44    1
    40    16    45    1
    41    16    46    1
    42    17    19   ar
    43    18    47    1
    44    18    48    1
    45    19    20   ar
    46    19    49    1
    47    20    23   ar
    48    20    50    1
    49    21    23   ar
    50    21    51    1
    51    22    24    1
    52    22    52    1
    53    22    53    1
    54    23    54    1
    55    24    25   ar
    56    25    26   ar
    57    26    27   ar
    58    26    55    1
    59    27    56    1
    60    28    57    1
    61    28    58    1
    62    28    59    1
@<TRIPOS>MOLECULE
154925832
 59 62 0 0 0
SMALL
GASTEIGER

@<TRIPOS>ATOM
      1 S          -2.0150    2.3038    5.0411 S.2     1  UNL1       -0.0926
      2 O          -3.4780   -1.7041   -1.1056 O.3     1  UNL1       -0.3732
      3 O          -6.8095   -1.7965    1.6320 O.3     1  UNL1       -0.3917
      4 O          -0.0577   -0.8977    4.1139 O.3     1  UNL1       -0.4941
      5 N          -2.6158    1.7397    0.0344 N.ar    1  UNL1       -0.2593
      6 N           0.0578    1.4996    1.9681 N.4     1  UNL1        0.2308
      7 C          -3.5817   -1.0970    0.1878 C.3     1  UNL1        0.0728
      8 C          -1.1415   -0.2325   -0.0614 C.3     1  UNL1        0.0224
      9 C          -2.1927   -0.9539    0.8332 C.3     1  UNL1       -0.0123
     10 C          -4.4808   -2.0092    1.0377 C.3     1  UNL1        0.0024
     11 C          -4.4284    0.1820    0.1498 C.3     1  UNL1       -0.0213
     12 C          -5.9002   -1.7207    0.5465 C.3     1  UNL1        0.0580
     13 C          -5.8625   -0.3127   -0.0491 C.3     1  UNL1       -0.0242
     14 C          -1.1858   -0.9535   -1.4364 C.3     1  UNL1       -0.0181
     15 C           0.2670   -0.4668    0.5390 C.3     1  UNL1       -0.0013
     16 C          -2.5969   -1.0429   -2.0073 C.3     1  UNL1        0.0492
     17 C          -1.3476    1.2945   -0.1120 C.ar    1  UNL1        0.0478
     18 C           0.3478    0.0706    1.9607 C.3     1  UNL1       -0.0325
     19 C          -0.2522    2.1219   -0.3004 C.ar    1  UNL1       -0.0398
     20 C          -0.4725    3.4942   -0.3412 C.ar    1  UNL1       -0.0586
     21 C          -2.7910    3.0793   -0.0106 C.ar    1  UNL1        0.0279
     22 C           0.1453    2.0406    3.3171 C.3     1  UNL1        0.0021
     23 C          -1.7631    3.9901   -0.1945 C.ar    1  UNL1       -0.0436
     24 C          -0.8179    1.3642    4.2560 C.ar    1  UNL1        0.0756
     25 C          -0.8939    0.0337    4.6051 C.ar    1  UNL1        0.1353
     26 C          -1.9488   -0.2175    5.5289 C.ar    1  UNL1       -0.0124
     27 C          -2.6390    0.9303    5.8511 C.ar    1  UNL1       -0.0203
     28 C          -0.5601   -2.2337    3.9702 C.3     1  UNL1        0.0788
     29 H          -6.8125   -2.6984    1.9889 H       1  UNL1        0.2098
     30 H          -0.8845    1.6510    1.6082 H       1  UNL1        0.2017
     31 H           0.7439    1.9744    1.3814 H       1  UNL1        0.2017
     32 H          -1.8254   -1.9333    1.0585 H       1  UNL1        0.0302
     33 H          -2.3210   -0.3471    1.7051 H       1  UNL1        0.0302
     34 H          -4.3853   -1.7715    2.0766 H       1  UNL1        0.0318
     35 H          -4.2197   -3.0421    0.9381 H       1  UNL1        0.0318
     36 H          -4.1288    0.8097   -0.6633 H       1  UNL1        0.0294
     37 H          -4.3200    0.7679    1.0386 H       1  UNL1        0.0294
     38 H          -6.2264   -2.4315   -0.1837 H       1  UNL1        0.0594
     39 H          -6.1063   -0.3414   -1.0906 H       1  UNL1        0.0291
     40 H          -6.5727    0.3346    0.4216 H       1  UNL1        0.0291
     41 H          -0.8016   -1.9448   -1.3159 H       1  UNL1        0.0296
     42 H          -0.5952   -0.3814   -2.1211 H       1  UNL1        0.0296
     43 H           0.9935    0.0336   -0.0665 H       1  UNL1        0.0326
     44 H           0.4588   -1.5192    0.5600 H       1  UNL1        0.0326
     45 H          -2.9625   -0.0540   -2.1899 H       1  UNL1        0.0560
     46 H          -2.5587   -1.6058   -2.9164 H       1  UNL1        0.0560
     47 H          -0.3656   -0.4394    2.5738 H       1  UNL1        0.0814
     48 H           1.3341   -0.0908    2.3428 H       1  UNL1        0.0814
     49 H           0.6973    1.7318   -0.4072 H       1  UNL1        0.0636
     50 H           0.3188    4.1420   -0.4797 H       1  UNL1        0.0619
     51 H          -3.7493    3.4463    0.0987 H       1  UNL1        0.0829
     52 H          -0.0786    3.0864    3.2859 H       1  UNL1        0.0873
     53 H           1.1375    1.8696    3.6796 H       1  UNL1        0.0873
     54 H          -1.9497    5.0047   -0.2217 H       1  UNL1        0.0633
     55 H          -2.1699   -1.1499    5.9119 H       1  UNL1        0.0659
     56 H          -3.4379    0.9591    6.5037 H       1  UNL1        0.0694
     57 H           0.2083   -2.8627    3.5714 H       1  UNL1        0.0660
     58 H          -1.3986   -2.2299    3.3055 H       1  UNL1        0.0660
     59 H          -0.8646   -2.6052    4.9263 H       1  UNL1        0.0660
@<TRIPOS>UNITY_ATOM_ATTR
6 1
charge 1
@<TRIPOS>BOND
     1     1    24   ar
     2     1    27   ar
     3     2    16    1
     4     3    12    1
     5     3    29    1
     6     4    25    1
     7     4    28    1
     8     5    17   ar
     9     5    21   ar
    10     6    18    1
    11     6    22    1
    12     6    30    1
    13     6    31    1
    14     7     2    1
    15     7     9    1
    16     7    10    1
    17     7    11    1
    18     8     9    1
    19     8    14    1
    20     8    15    1
    21     8    17    1
    22     9    32    1
    23     9    33    1
    24    10    12    1
    25    10    34    1
    26    10    35    1
    27    11    13    1
    28    11    36    1
    29    11    37    1
    30    12    13    1
    31    12    38    1
    32    13    39    1
    33    13    40    1
    34    14    16    1
    35    14    41    1
    36    14    42    1
    37    15    18    1
    38    15    43    1
    39    15    44    1
    40    16    45    1
    41    16    46    1
    42    17    19   ar
    43    18    47    1
    44    18    48    1
    45    19    20   ar
    46    19    49    1
    47    20    23   ar
    48    20    50    1
    49    21    23   ar
    50    21    51    1
    51    22    24    1
    52    22    52    1
    53    22    53    1
    54    23    54    1
    55    24    25   ar
    56    25    26   ar
    57    26    27   ar
    58    26    55    1
    59    27    56    1
    60    28    57    1
    61    28    58    1
    62    28    59    1
@<TRIPOS>MOLECULE
154925832
 59 62 0 0 0
SMALL
GASTEIGER

@<TRIPOS>ATOM
      1 S           2.7266    2.5774    3.2842 S.2     1  UNL1       -0.0926
      2 O          -3.4780   -1.7041   -1.1056 O.3     1  UNL1       -0.3732
      3 O          -6.8095   -1.7965    1.6320 O.3     1  UNL1       -0.3917
      4 O           3.6423    0.8951   -0.0731 O.3     1  UNL1       -0.4941
      5 N          -0.6967    2.0248    0.8212 N.ar    1  UNL1       -0.2593
      6 N           1.0858    1.6705   -0.3064 N.4     1  UNL1        0.2308
      7 C          -3.5817   -1.0970    0.1878 C.3     1  UNL1        0.0728
      8 C          -1.1415   -0.2325   -0.0614 C.3     1  UNL1        0.0224
      9 C          -2.1927   -0.9539    0.8332 C.3     1  UNL1       -0.0123
     10 C          -4.4808   -2.0092    1.0377 C.3     1  UNL1        0.0024
     11 C          -4.4284    0.1820    0.1498 C.3     1  UNL1       -0.0213
     12 C          -5.9002   -1.7207    0.5465 C.3     1  UNL1        0.0580
     13 C          -5.8625   -0.3127   -0.0491 C.3     1  UNL1       -0.0242
     14 C          -1.1858   -0.9535   -1.4364 C.3     1  UNL1       -0.0181
     15 C           0.2670   -0.4668    0.5390 C.3     1  UNL1       -0.0013
     16 C          -2.5969   -1.0429   -2.0073 C.3     1  UNL1        0.0492
     17 C          -1.3476    1.2945   -0.1120 C.ar    1  UNL1        0.0478
     18 C           1.3342    0.2337   -0.2898 C.3     1  UNL1       -0.0325
     19 C          -2.1696    1.8370   -1.0866 C.ar    1  UNL1       -0.0398
     20 C          -2.3341    3.2176   -1.1046 C.ar    1  UNL1       -0.0586
     21 C          -0.8807    3.3631    0.7724 C.ar    1  UNL1        0.0279
     22 C           1.1302    2.2211    1.0408 C.3     1  UNL1        0.0021
     23 C          -1.6810    4.0023   -0.1607 C.ar    1  UNL1       -0.0436
     24 C           2.4749    2.0159    1.6862 C.ar    1  UNL1        0.0756
     25 C           3.6001    1.4147    1.1663 C.ar    1  UNL1        0.1353
     26 C           4.6829    1.4149    2.0920 C.ar    1  UNL1       -0.0124
     27 C           4.3444    2.0163    3.2843 C.ar    1  UNL1       -0.0203
     28 C           4.5097   -0.2256   -0.2959 C.3     1  UNL1        0.0788
     29 H          -6.8125   -2.6984    1.9889 H       1  UNL1        0.2098
     30 H           0.1649    1.8456   -0.7085 H       1  UNL1        0.2017
     31 H           1.8104    2.1200   -0.8662 H       1  UNL1        0.2017
     32 H          -1.8254   -1.9333    1.0585 H       1  UNL1        0.0302
     33 H          -2.3210   -0.3471    1.7051 H       1  UNL1        0.0302
     34 H          -4.3853   -1.7715    2.0766 H       1  UNL1        0.0318
     35 H          -4.2197   -3.0421    0.9381 H       1  UNL1        0.0318
     36 H          -4.1288    0.8097   -0.6633 H       1  UNL1        0.0294
     37 H          -4.3200    0.7679    1.0386 H       1  UNL1        0.0294
     38 H          -6.2264   -2.4315   -0.1837 H       1  UNL1        0.0594
     39 H          -6.1063   -0.3414   -1.0906 H       1  UNL1        0.0291
     40 H          -6.5727    0.3346    0.4216 H       1  UNL1        0.0291
     41 H          -0.8016   -1.9448   -1.3159 H       1  UNL1        0.0296
     42 H          -0.5952   -0.3814   -2.1211 H       1  UNL1        0.0296
     43 H           0.4702   -1.5172    0.5562 H       1  UNL1        0.0326
     44 H           0.2867   -0.0660    1.5309 H       1  UNL1        0.0326
     45 H          -2.9625   -0.0540   -2.1899 H       1  UNL1        0.0560
     46 H          -2.5587   -1.6058   -2.9164 H       1  UNL1        0.0560
     47 H           2.2966    0.0449    0.1383 H       1  UNL1        0.0814
     48 H           1.3043   -0.1406   -1.2917 H       1  UNL1        0.0814
     49 H          -2.6448    1.2353   -1.7775 H       1  UNL1        0.0636
     50 H          -2.9386    3.6581   -1.8157 H       1  UNL1        0.0619
     51 H          -0.3952    3.9445    1.4733 H       1  UNL1        0.0829
     52 H           0.3833    1.7392    1.6365 H       1  UNL1        0.0873
     53 H           0.9507    3.2739    0.9752 H       1  UNL1        0.0873
     54 H          -1.7889    5.0286   -0.1553 H       1  UNL1        0.0633
     55 H           5.6118    1.0119    1.8929 H       1  UNL1        0.0659
     56 H           4.9897    2.1168    4.0833 H       1  UNL1        0.0694
     57 H           4.4416   -0.5315   -1.3190 H       1  UNL1        0.0660
     58 H           4.2161   -1.0354    0.3389 H       1  UNL1        0.0660
     59 H           5.5182    0.0542   -0.0736 H       1  UNL1        0.0660
@<TRIPOS>UNITY_ATOM_ATTR
6 1
charge 1
@<TRIPOS>BOND
     1     1    24   ar
     2     1    27   ar
     3     2    16    1
     4     3    12    1
     5     3    29    1
     6     4    25    1
     7     4    28    1
     8     5    17   ar
     9     5    21   ar
    10     6    18    1
    11     6    22    1
    12     6    30    1
    13     6    31    1
    14     7     2    1
    15     7     9    1
    16     7    10    1
    17     7    11    1
    18     8     9    1
    19     8    14    1
    20     8    15    1
    21     8    17    1
    22     9    32    1
    23     9    33    1
    24    10    12    1
    25    10    34    1
    26    10    35    1
    27    11    13    1
    28    11    36    1
    29    11    37    1
    30    12    13    1
    31    12    38    1
    32    13    39    1
    33    13    40    1
    34    14    16    1
    35    14    41    1
    36    14    42    1
    37    15    18    1
    38    15    43    1
    39    15    44    1
    40    16    45    1
    41    16    46    1
    42    17    19   ar
    43    18    47    1
    44    18    48    1
    45    19    20   ar
    46    19    49    1
    47    20    23   ar
    48    20    50    1
    49    21    23   ar
    50    21    51    1
    51    22    24    1
    52    22    52    1
    53    22    53    1
    54    23    54    1
    55    24    25   ar
    56    25    26   ar
    57    26    27   ar
    58    26    55    1
    59    27    56    1
    60    28    57    1
    61    28    58    1
    62    28    59    1
@<TRIPOS>MOLECULE
154925832
 59 62 0 0 0
SMALL
GASTEIGER

@<TRIPOS>ATOM
      1 S           1.9176   -5.8162   -0.3854 S.2     1  UNL1       -0.0926
      2 O          -3.4780   -1.7041   -1.1056 O.3     1  UNL1       -0.3732
      3 O          -6.8095   -1.7965    1.6320 O.3     1  UNL1       -0.3917
      4 O           2.9642   -2.2592   -1.4775 O.3     1  UNL1       -0.4941
      5 N          -0.6967    2.0248    0.8212 N.ar    1  UNL1       -0.2593
      6 N           1.9227   -2.1473    1.1614 N.4     1  UNL1        0.2308
      7 C          -3.5817   -1.0970    0.1878 C.3     1  UNL1        0.0728
      8 C          -1.1415   -0.2325   -0.0614 C.3     1  UNL1        0.0224
      9 C          -2.1927   -0.9539    0.8332 C.3     1  UNL1       -0.0123
     10 C          -4.4808   -2.0092    1.0377 C.3     1  UNL1        0.0024
     11 C          -4.4284    0.1820    0.1498 C.3     1  UNL1       -0.0213
     12 C          -5.9002   -1.7207    0.5465 C.3     1  UNL1        0.0580
     13 C          -5.8625   -0.3127   -0.0491 C.3     1  UNL1       -0.0242
     14 C          -1.1858   -0.9535   -1.4364 C.3     1  UNL1       -0.0181
     15 C           0.2670   -0.4668    0.5390 C.3     1  UNL1       -0.0013
     16 C          -2.5969   -1.0429   -2.0073 C.3     1  UNL1        0.0492
     17 C          -1.3476    1.2945   -0.1120 C.ar    1  UNL1        0.0478
     18 C           0.6009   -1.9512    0.5778 C.3     1  UNL1       -0.0325
     19 C          -2.1696    1.8370   -1.0866 C.ar    1  UNL1       -0.0398
     20 C          -2.3341    3.2176   -1.1046 C.ar    1  UNL1       -0.0586
     21 C          -0.8807    3.3631    0.7724 C.ar    1  UNL1        0.0279
     22 C           2.2719   -3.5605    1.1941 C.3     1  UNL1        0.0021
     23 C          -1.6810    4.0023   -0.1607 C.ar    1  UNL1       -0.0436
     24 C           2.3084   -4.1610   -0.1861 C.ar    1  UNL1        0.0756
     25 C           2.6250   -3.5569   -1.3831 C.ar    1  UNL1        0.1353
     26 C           2.5455   -4.4648   -2.4780 C.ar    1  UNL1       -0.0124
     27 C           2.1713   -5.7283   -2.0765 C.ar    1  UNL1       -0.0203
     28 C           2.6347   -1.5718   -2.6927 C.3     1  UNL1        0.0788
     29 H          -6.8125   -2.6984    1.9889 H       1  UNL1        0.2098
     30 H           1.9253   -1.7807    2.1133 H       1  UNL1        0.2017
     31 H           2.6083   -1.6554    0.5883 H       1  UNL1        0.2017
     32 H          -1.8254   -1.9333    1.0585 H       1  UNL1        0.0302
     33 H          -2.3210   -0.3471    1.7051 H       1  UNL1        0.0302
     34 H          -4.3853   -1.7715    2.0766 H       1  UNL1        0.0318
     35 H          -4.2197   -3.0421    0.9381 H       1  UNL1        0.0318
     36 H          -4.1288    0.8097   -0.6633 H       1  UNL1        0.0294
     37 H          -4.3200    0.7679    1.0386 H       1  UNL1        0.0294
     38 H          -6.2264   -2.4315   -0.1837 H       1  UNL1        0.0594
     39 H          -6.1063   -0.3414   -1.0906 H       1  UNL1        0.0291
     40 H          -6.5727    0.3346    0.4216 H       1  UNL1        0.0291
     41 H          -0.8016   -1.9448   -1.3159 H       1  UNL1        0.0296
     42 H          -0.5952   -0.3814   -2.1211 H       1  UNL1        0.0296
     43 H           0.2928   -0.0758    1.5346 H       1  UNL1        0.0326
     44 H           0.9878    0.0297   -0.0764 H       1  UNL1        0.0326
     45 H          -2.9625   -0.0540   -2.1899 H       1  UNL1        0.0560
     46 H          -2.5587   -1.6058   -2.9164 H       1  UNL1        0.0560
     47 H          -0.1281   -2.4635    1.1702 H       1  UNL1        0.0814
     48 H           0.5947   -2.3399   -0.4191 H       1  UNL1        0.0814
     49 H          -2.6448    1.2353   -1.7775 H       1  UNL1        0.0636
     50 H          -2.9386    3.6581   -1.8157 H       1  UNL1        0.0619
     51 H          -0.3952    3.9445    1.4733 H       1  UNL1        0.0829
     52 H           1.5448   -4.0832    1.7798 H       1  UNL1        0.0873
     53 H           3.2486   -3.6513    1.6215 H       1  UNL1        0.0873
     54 H          -1.7889    5.0286   -0.1553 H       1  UNL1        0.0633
     55 H           2.7449   -4.2063   -3.4570 H       1  UNL1        0.0659
     56 H           2.0573   -6.5277   -2.7192 H       1  UNL1        0.0694
     57 H           2.9614   -0.5549   -2.6271 H       1  UNL1        0.0660
     58 H           1.5753   -1.5972   -2.8409 H       1  UNL1        0.0660
     59 H           3.1216   -2.0504   -3.5165 H       1  UNL1        0.0660
@<TRIPOS>UNITY_ATOM_ATTR
6 1
charge 1
@<TRIPOS>BOND
     1     1    24   ar
     2     1    27   ar
     3     2    16    1
     4     3    12    1
     5     3    29    1
     6     4    25    1
     7     4    28    1
     8     5    17   ar
     9     5    21   ar
    10     6    18    1
    11     6    22    1
    12     6    30    1
    13     6    31    1
    14     7     2    1
    15     7     9    1
    16     7    10    1
    17     7    11    1
    18     8     9    1
    19     8    14    1
    20     8    15    1
    21     8    17    1
    22     9    32    1
    23     9    33    1
    24    10    12    1
    25    10    34    1
    26    10    35    1
    27    11    13    1
    28    11    36    1
    29    11    37    1
    30    12    13    1
    31    12    38    1
    32    13    39    1
    33    13    40    1
    34    14    16    1
    35    14    41    1
    36    14    42    1
    37    15    18    1
    38    15    43    1
    39    15    44    1
    40    16    45    1
    41    16    46    1
    42    17    19   ar
    43    18    47    1
    44    18    48    1
    45    19    20   ar
    46    19    49    1
    47    20    23   ar
    48    20    50    1
    49    21    23   ar
    50    21    51    1
    51    22    24    1
    52    22    52    1
    53    22    53    1
    54    23    54    1
    55    24    25   ar
    56    25    26   ar
    57    26    27   ar
    58    26    55    1
    59    27    56    1
    60    28    57    1
    61    28    58    1
    62    28    59    1
@<TRIPOS>MOLECULE
154925832
 59 62 0 0 0
SMALL
GASTEIGER

@<TRIPOS>ATOM
      1 S           3.4098   -3.5352   -1.3383 S.2     1  UNL1       -0.0926
      2 O          -3.4780   -1.7041   -1.1056 O.3     1  UNL1       -0.3732
      3 O          -6.8095   -1.7965    1.6320 O.3     1  UNL1       -0.3917
      4 O           0.6212   -5.8419    0.0193 O.3     1  UNL1       -0.4941
      5 N          -0.9732    1.9188   -1.2513 N.ar    1  UNL1       -0.2593
      6 N           1.9227   -2.1473    1.1614 N.4     1  UNL1        0.2308
      7 C          -3.5817   -1.0970    0.1878 C.3     1  UNL1        0.0728
      8 C          -1.1415   -0.2325   -0.0614 C.3     1  UNL1        0.0224
      9 C          -2.1927   -0.9539    0.8332 C.3     1  UNL1       -0.0123
     10 C          -4.4808   -2.0092    1.0377 C.3     1  UNL1        0.0024
     11 C          -4.4284    0.1820    0.1498 C.3     1  UNL1       -0.0213
     12 C          -5.9002   -1.7207    0.5465 C.3     1  UNL1        0.0580
     13 C          -5.8625   -0.3127   -0.0491 C.3     1  UNL1       -0.0242
     14 C          -1.1858   -0.9535   -1.4364 C.3     1  UNL1       -0.0181
     15 C           0.2670   -0.4668    0.5390 C.3     1  UNL1       -0.0013
     16 C          -2.5969   -1.0429   -2.0073 C.3     1  UNL1        0.0492
     17 C          -1.3476    1.2945   -0.1120 C.ar    1  UNL1        0.0478
     18 C           0.6009   -1.9512    0.5778 C.3     1  UNL1       -0.0325
     19 C          -1.8934    1.9429    0.9841 C.ar    1  UNL1       -0.0398
     20 C          -2.0661    3.3204    0.9060 C.ar    1  UNL1       -0.0586
     21 C          -1.1561    3.2576   -1.2905 C.ar    1  UNL1        0.0279
     22 C           2.2719   -3.5605    1.1941 C.3     1  UNL1        0.0021
     23 C          -1.6928    3.9978   -0.2495 C.ar    1  UNL1       -0.0436
     24 C           2.3084   -4.1610   -0.1861 C.ar    1  UNL1        0.0756
     25 C           1.5531   -5.1921   -0.7000 C.ar    1  UNL1        0.1353
     26 C           1.8831   -5.4722   -2.0572 C.ar    1  UNL1       -0.0124
     27 C           2.8780   -4.6445   -2.5293 C.ar    1  UNL1       -0.0203
     28 C           0.4196   -5.4265    1.3775 C.3     1  UNL1        0.0788
     29 H          -6.8125   -2.6984    1.9889 H       1  UNL1        0.2098
     30 H           1.9253   -1.7807    2.1133 H       1  UNL1        0.2017
     31 H           2.6083   -1.6554    0.5883 H       1  UNL1        0.2017
     32 H          -1.8254   -1.9333    1.0585 H       1  UNL1        0.0302
     33 H          -2.3210   -0.3471    1.7051 H       1  UNL1        0.0302
     34 H          -4.3853   -1.7715    2.0766 H       1  UNL1        0.0318
     35 H          -4.2197   -3.0421    0.9381 H       1  UNL1        0.0318
     36 H          -4.1288    0.8097   -0.6633 H       1  UNL1        0.0294
     37 H          -4.3200    0.7679    1.0386 H       1  UNL1        0.0294
     38 H          -6.2264   -2.4315   -0.1837 H       1  UNL1        0.0594
     39 H          -6.1063   -0.3414   -1.0906 H       1  UNL1        0.0291
     40 H          -6.5727    0.3346    0.4216 H       1  UNL1        0.0291
     41 H          -0.8016   -1.9448   -1.3159 H       1  UNL1        0.0296
     42 H          -0.5952   -0.3814   -2.1211 H       1  UNL1        0.0296
     43 H           0.2928   -0.0758    1.5346 H       1  UNL1        0.0326
     44 H           0.9878    0.0297   -0.0764 H       1  UNL1        0.0326
     45 H          -2.9625   -0.0540   -2.1899 H       1  UNL1        0.0560
     46 H          -2.5587   -1.6058   -2.9164 H       1  UNL1        0.0560
     47 H          -0.1281   -2.4635    1.1702 H       1  UNL1        0.0814
     48 H           0.5947   -2.3399   -0.4191 H       1  UNL1        0.0814
     49 H          -2.1633    1.4199    1.8319 H       1  UNL1        0.0636
     50 H          -2.4697    3.8380    1.7025 H       1  UNL1        0.0619
     51 H          -0.8790    3.7592   -2.1488 H       1  UNL1        0.0829
     52 H           1.5448   -4.0832    1.7798 H       1  UNL1        0.0873
     53 H           3.2486   -3.6513    1.6215 H       1  UNL1        0.0873
     54 H          -1.8117    5.0198   -0.3292 H       1  UNL1        0.0633
     55 H           1.4301   -6.2087   -2.6206 H       1  UNL1        0.0659
     56 H           3.2580   -4.6879   -3.4878 H       1  UNL1        0.0694
     57 H          -0.3456   -6.0266    1.8241 H       1  UNL1        0.0660
     58 H           0.1230   -4.3987    1.3958 H       1  UNL1        0.0660
     59 H           1.3309   -5.5446    1.9256 H       1  UNL1        0.0660
@<TRIPOS>UNITY_ATOM_ATTR
6 1
charge 1
@<TRIPOS>BOND
     1     1    24   ar
     2     1    27   ar
     3     2    16    1
     4     3    12    1
     5     3    29    1
     6     4    25    1
     7     4    28    1
     8     5    17   ar
     9     5    21   ar
    10     6    18    1
    11     6    22    1
    12     6    30    1
    13     6    31    1
    14     7     2    1
    15     7     9    1
    16     7    10    1
    17     7    11    1
    18     8     9    1
    19     8    14    1
    20     8    15    1
    21     8    17    1
    22     9    32    1
    23     9    33    1
    24    10    12    1
    25    10    34    1
    26    10    35    1
    27    11    13    1
    28    11    36    1
    29    11    37    1
    30    12    13    1
    31    12    38    1
    32    13    39    1
    33    13    40    1
    34    14    16    1
    35    14    41    1
    36    14    42    1
    37    15    18    1
    38    15    43    1
    39    15    44    1
    40    16    45    1
    41    16    46    1
    42    17    19   ar
    43    18    47    1
    44    18    48    1
    45    19    20   ar
    46    19    49    1
    47    20    23   ar
    48    20    50    1
    49    21    23   ar
    50    21    51    1
    51    22    24    1
    52    22    52    1
    53    22    53    1
    54    23    54    1
    55    24    25   ar
    56    25    26   ar
    57    26    27   ar
    58    26    55    1
    59    27    56    1
    60    28    57    1
    61    28    58    1
    62    28    59    1
@<TRIPOS>MOLECULE
154925832
 59 62 0 0 0
SMALL
GASTEIGER

@<TRIPOS>ATOM
      1 S           1.5270   -6.0496    2.1727 S.2     1  UNL1       -0.0926
      2 O          -3.4780   -1.7041   -1.1056 O.3     1  UNL1       -0.3732
      3 O          -6.8095   -1.7965    1.6320 O.3     1  UNL1       -0.3917
      4 O          -0.2473   -2.6496    2.6547 O.3     1  UNL1       -0.4941
      5 N          -2.1487    1.7653   -1.0941 N.ar    1  UNL1       -0.2593
      6 N           1.9227   -2.1473    1.1614 N.4     1  UNL1        0.2308
      7 C          -3.5817   -1.0970    0.1878 C.3     1  UNL1        0.0728
      8 C          -1.1415   -0.2325   -0.0614 C.3     1  UNL1        0.0224
      9 C          -2.1927   -0.9539    0.8332 C.3     1  UNL1       -0.0123
     10 C          -4.4808   -2.0092    1.0377 C.3     1  UNL1        0.0024
     11 C          -4.4284    0.1820    0.1498 C.3     1  UNL1       -0.0213
     12 C          -5.9002   -1.7207    0.5465 C.3     1  UNL1        0.0580
     13 C          -5.8625   -0.3127   -0.0491 C.3     1  UNL1       -0.0242
     14 C          -1.1858   -0.9535   -1.4364 C.3     1  UNL1       -0.0181
     15 C           0.2670   -0.4668    0.5390 C.3     1  UNL1       -0.0013
     16 C          -2.5969   -1.0429   -2.0073 C.3     1  UNL1        0.0492
     17 C          -1.3476    1.2945   -0.1120 C.ar    1  UNL1        0.0478
     18 C           0.6009   -1.9512    0.5778 C.3     1  UNL1       -0.0325
     19 C          -0.7189    2.0962    0.8271 C.ar    1  UNL1       -0.0398
     20 C          -0.9257    3.4693    0.7536 C.ar    1  UNL1       -0.0586
     21 C          -2.3261    3.1049   -1.1339 C.ar    1  UNL1        0.0279
     22 C           2.2719   -3.5605    1.1941 C.3     1  UNL1        0.0021
     23 C          -1.7431    3.9912   -0.2427 C.ar    1  UNL1       -0.0436
     24 C           1.2836   -4.3638    1.9970 C.ar    1  UNL1        0.0756
     25 C           0.1489   -3.9345    2.6498 C.ar    1  UNL1        0.1353
     26 C          -0.5293   -5.0036    3.3028 C.ar    1  UNL1       -0.0124
     27 C           0.1125   -6.2094    3.1244 C.ar    1  UNL1       -0.0203
     28 C          -0.9632   -2.1782    3.8050 C.3     1  UNL1        0.0788
     29 H          -6.8125   -2.6984    1.9889 H       1  UNL1        0.2098
     30 H           1.9253   -1.7807    2.1133 H       1  UNL1        0.2017
     31 H           2.6083   -1.6554    0.5883 H       1  UNL1        0.2017
     32 H          -1.8254   -1.9333    1.0585 H       1  UNL1        0.0302
     33 H          -2.3210   -0.3471    1.7051 H       1  UNL1        0.0302
     34 H          -4.3853   -1.7715    2.0766 H       1  UNL1        0.0318
     35 H          -4.2197   -3.0421    0.9381 H       1  UNL1        0.0318
     36 H          -4.1288    0.8097   -0.6633 H       1  UNL1        0.0294
     37 H          -4.3200    0.7679    1.0386 H       1  UNL1        0.0294
     38 H          -6.2264   -2.4315   -0.1837 H       1  UNL1        0.0594
     39 H          -6.1063   -0.3414   -1.0906 H       1  UNL1        0.0291
     40 H          -6.5727    0.3346    0.4216 H       1  UNL1        0.0291
     41 H          -0.8016   -1.9448   -1.3159 H       1  UNL1        0.0296
     42 H          -0.5952   -0.3814   -2.1211 H       1  UNL1        0.0296
     43 H           0.2928   -0.0758    1.5346 H       1  UNL1        0.0326
     44 H           0.9878    0.0297   -0.0764 H       1  UNL1        0.0326
     45 H          -2.9625   -0.0540   -2.1899 H       1  UNL1        0.0560
     46 H          -2.5587   -1.6058   -2.9164 H       1  UNL1        0.0560
     47 H          -0.1281   -2.4635    1.1702 H       1  UNL1        0.0814
     48 H           0.5947   -2.3399   -0.4191 H       1  UNL1        0.0814
     49 H          -0.1162    1.6871    1.5581 H       1  UNL1        0.0636
     50 H          -0.4743    4.0985    1.4358 H       1  UNL1        0.0619
     51 H          -2.9333    3.4911   -1.8737 H       1  UNL1        0.0829
     52 H           3.2421   -3.6673    1.6326 H       1  UNL1        0.0873
     53 H           2.2605   -3.9286    0.1894 H       1  UNL1        0.0873
     54 H          -1.9103    5.0069   -0.3162 H       1  UNL1        0.0633
     55 H          -1.3993   -4.8884    3.8458 H       1  UNL1        0.0659
     56 H          -0.2199   -7.1036    3.5179 H       1  UNL1        0.0694
     57 H          -1.2131   -1.1464    3.6714 H       1  UNL1        0.0660
     58 H          -0.3507   -2.2871    4.6755 H       1  UNL1        0.0660
     59 H          -1.8598   -2.7495    3.9260 H       1  UNL1        0.0660
@<TRIPOS>UNITY_ATOM_ATTR
6 1
charge 1
@<TRIPOS>BOND
     1     1    24   ar
     2     1    27   ar
     3     2    16    1
     4     3    12    1
     5     3    29    1
     6     4    25    1
     7     4    28    1
     8     5    17   ar
     9     5    21   ar
    10     6    18    1
    11     6    22    1
    12     6    30    1
    13     6    31    1
    14     7     2    1
    15     7     9    1
    16     7    10    1
    17     7    11    1
    18     8     9    1
    19     8    14    1
    20     8    15    1
    21     8    17    1
    22     9    32    1
    23     9    33    1
    24    10    12    1
    25    10    34    1
    26    10    35    1
    27    11    13    1
    28    11    36    1
    29    11    37    1
    30    12    13    1
    31    12    38    1
    32    13    39    1
    33    13    40    1
    34    14    16    1
    35    14    41    1
    36    14    42    1
    37    15    18    1
    38    15    43    1
    39    15    44    1
    40    16    45    1
    41    16    46    1
    42    17    19   ar
    43    18    47    1
    44    18    48    1
    45    19    20   ar
    46    19    49    1
    47    20    23   ar
    48    20    50    1
    49    21    23   ar
    50    21    51    1
    51    22    24    1
    52    22    52    1
    53    22    53    1
    54    23    54    1
    55    24    25   ar
    56    25    26   ar
    57    26    27   ar
    58    26    55    1
    59    27    56    1
    60    28    57    1
    61    28    58    1
    62    28    59    1
@<TRIPOS>MOLECULE
154925832
 59 62 0 0 0
SMALL
GASTEIGER

@<TRIPOS>ATOM
      1 S           5.2627   -2.9720    0.4173 S.2     1  UNL1       -0.0926
      2 O          -3.4780   -1.7041   -1.1056 O.3     1  UNL1       -0.3732
      3 O          -6.8095   -1.7965    1.6320 O.3     1  UNL1       -0.3917
      4 O           4.4335    0.1848    2.4880 O.3     1  UNL1       -0.4941
      5 N          -0.4848    1.9970   -0.8800 N.ar    1  UNL1       -0.2593
      6 N           1.9227   -2.1473    1.1614 N.4     1  UNL1        0.2308
      7 C          -3.5817   -1.0970    0.1878 C.3     1  UNL1        0.0728
      8 C          -1.1415   -0.2325   -0.0614 C.3     1  UNL1        0.0224
      9 C          -2.1927   -0.9539    0.8332 C.3     1  UNL1       -0.0123
     10 C          -4.4808   -2.0092    1.0377 C.3     1  UNL1        0.0024
     11 C          -4.4284    0.1820    0.1498 C.3     1  UNL1       -0.0213
     12 C          -5.9002   -1.7207    0.5465 C.3     1  UNL1        0.0580
     13 C          -5.8625   -0.3127   -0.0491 C.3     1  UNL1       -0.0242
     14 C          -1.1858   -0.9535   -1.4364 C.3     1  UNL1       -0.0181
     15 C           0.2670   -0.4668    0.5390 C.3     1  UNL1       -0.0013
     16 C          -2.5969   -1.0429   -2.0073 C.3     1  UNL1        0.0492
     17 C          -1.3476    1.2945   -0.1120 C.ar    1  UNL1        0.0478
     18 C           0.6009   -1.9512    0.5778 C.3     1  UNL1       -0.0325
     19 C          -2.3814    1.8648    0.6132 C.ar    1  UNL1       -0.0398
     20 C          -2.5399    3.2445    0.5458 C.ar    1  UNL1       -0.0586
     21 C          -0.6699    3.3355   -0.9210 C.ar    1  UNL1        0.0279
     22 C           2.9408   -1.4501    0.3884 C.3     1  UNL1        0.0021
     23 C          -1.6719    4.0012   -0.2335 C.ar    1  UNL1       -0.0436
     24 C           4.3176   -1.6525    0.9631 C.ar    1  UNL1        0.0756
     25 C           4.9759   -0.9031    1.9133 C.ar    1  UNL1        0.1353
     26 C           6.2732   -1.4188    2.1967 C.ar    1  UNL1       -0.0124
     27 C           6.5573   -2.5428    1.4526 C.ar    1  UNL1       -0.0203
     28 C           3.4916    0.9447    1.7178 C.3     1  UNL1        0.0788
     29 H          -6.8125   -2.6984    1.9889 H       1  UNL1        0.2098
     30 H           2.1376   -3.1444    1.1741 H       1  UNL1        0.2017
     31 H           1.9192   -1.7714    2.1097 H       1  UNL1        0.2017
     32 H          -1.8254   -1.9333    1.0585 H       1  UNL1        0.0302
     33 H          -2.3210   -0.3471    1.7051 H       1  UNL1        0.0302
     34 H          -4.3853   -1.7715    2.0766 H       1  UNL1        0.0318
     35 H          -4.2197   -3.0421    0.9381 H       1  UNL1        0.0318
     36 H          -4.1288    0.8097   -0.6633 H       1  UNL1        0.0294
     37 H          -4.3200    0.7679    1.0386 H       1  UNL1        0.0294
     38 H          -6.2264   -2.4315   -0.1837 H       1  UNL1        0.0594
     39 H          -6.1063   -0.3414   -1.0906 H       1  UNL1        0.0291
     40 H          -6.5727    0.3346    0.4216 H       1  UNL1        0.0291
     41 H          -0.8016   -1.9448   -1.3159 H       1  UNL1        0.0296
     42 H          -0.5952   -0.3814   -2.1211 H       1  UNL1        0.0296
     43 H           0.2928   -0.0758    1.5346 H       1  UNL1        0.0326
     44 H           0.9878    0.0297   -0.0764 H       1  UNL1        0.0326
     45 H          -2.9625   -0.0540   -2.1899 H       1  UNL1        0.0560
     46 H          -2.5587   -1.6058   -2.9164 H       1  UNL1        0.0560
     47 H          -0.1281   -2.4635    1.1702 H       1  UNL1        0.0814
     48 H           0.5947   -2.3399   -0.4191 H       1  UNL1        0.0814
     49 H          -3.0139    1.2836    1.1854 H       1  UNL1        0.0636
     50 H          -3.2987    3.7052    1.0722 H       1  UNL1        0.0619
     51 H          -0.0252    3.8959   -1.5001 H       1  UNL1        0.0829
     52 H           2.7172   -0.4037    0.3858 H       1  UNL1        0.0873
     53 H           2.9338   -1.8481   -0.6049 H       1  UNL1        0.0873
     54 H          -1.7708    5.0263   -0.2979 H       1  UNL1        0.0633
     55 H           6.9239   -0.9996    2.8793 H       1  UNL1        0.0659
     56 H           7.4456   -3.0647    1.5121 H       1  UNL1        0.0694
     57 H           3.1450    1.7752    2.2968 H       1  UNL1        0.0660
     58 H           2.6620    0.3226    1.4542 H       1  UNL1        0.0660
     59 H           3.9654    1.3034    0.8279 H       1  UNL1        0.0660
@<TRIPOS>UNITY_ATOM_ATTR
6 1
charge 1
@<TRIPOS>BOND
     1     1    24   ar
     2     1    27   ar
     3     2    16    1
     4     3    12    1
     5     3    29    1
     6     4    25    1
     7     4    28    1
     8     5    17   ar
     9     5    21   ar
    10     6    18    1
    11     6    22    1
    12     6    30    1
    13     6    31    1
    14     7     2    1
    15     7     9    1
    16     7    10    1
    17     7    11    1
    18     8     9    1
    19     8    14    1
    20     8    15    1
    21     8    17    1
    22     9    32    1
    23     9    33    1
    24    10    12    1
    25    10    34    1
    26    10    35    1
    27    11    13    1
    28    11    36    1
    29    11    37    1
    30    12    13    1
    31    12    38    1
    32    13    39    1
    33    13    40    1
    34    14    16    1
    35    14    41    1
    36    14    42    1
    37    15    18    1
    38    15    43    1
    39    15    44    1
    40    16    45    1
    41    16    46    1
    42    17    19   ar
    43    18    47    1
    44    18    48    1
    45    19    20   ar
    46    19    49    1
    47    20    23   ar
    48    20    50    1
    49    21    23   ar
    50    21    51    1
    51    22    24    1
    52    22    52    1
    53    22    53    1
    54    23    54    1
    55    24    25   ar
    56    25    26   ar
    57    26    27   ar
    58    26    55    1
    59    27    56    1
    60    28    57    1
    61    28    58    1
    62    28    59    1
@<TRIPOS>MOLECULE
154925832
 59 62 0 0 0
SMALL
GASTEIGER

@<TRIPOS>ATOM
      1 S           3.2823   -3.6898   -1.2976 S.2     1  UNL1       -0.0926
      2 O          -3.4780   -1.7041   -1.1056 O.3     1  UNL1       -0.3732
      3 O          -6.8095   -1.7965    1.6320 O.3     1  UNL1       -0.3917
      4 O           2.4767   -0.0709   -2.3906 O.3     1  UNL1       -0.4941
      5 N          -2.3814    1.7902    0.6045 N.ar    1  UNL1       -0.2593
      6 N           2.6511   -0.0149    0.2847 N.4     1  UNL1        0.2308
      7 C          -3.5817   -1.0970    0.1878 C.3     1  UNL1        0.0728
      8 C          -1.1415   -0.2325   -0.0614 C.3     1  UNL1        0.0224
      9 C          -2.1927   -0.9539    0.8332 C.3     1  UNL1       -0.0123
     10 C          -4.4808   -2.0092    1.0377 C.3     1  UNL1        0.0024
     11 C          -4.4284    0.1820    0.1498 C.3     1  UNL1       -0.0213
     12 C          -5.9002   -1.7207    0.5465 C.3     1  UNL1        0.0580
     13 C          -5.8625   -0.3127   -0.0491 C.3     1  UNL1       -0.0242
     14 C          -1.1858   -0.9535   -1.4364 C.3     1  UNL1       -0.0181
     15 C           0.2670   -0.4668    0.5390 C.3     1  UNL1       -0.0013
     16 C          -2.5969   -1.0429   -2.0073 C.3     1  UNL1        0.0492
     17 C          -1.3476    1.2945   -0.1120 C.ar    1  UNL1        0.0478
     18 C           1.3342    0.2337   -0.2898 C.3     1  UNL1       -0.0325
     19 C          -0.4864    2.0714   -0.8701 C.ar    1  UNL1       -0.0398
     20 C          -0.6998    3.4452   -0.8943 C.ar    1  UNL1       -0.0586
     21 C          -2.5576    3.1296    0.5569 C.ar    1  UNL1        0.0279
     22 C           2.9533   -1.4392    0.2945 C.3     1  UNL1        0.0021
     23 C          -1.7531    3.9923   -0.1700 C.ar    1  UNL1       -0.0436
     24 C           2.9641   -2.0196   -1.0947 C.ar    1  UNL1        0.0756
     25 C           2.7474   -1.3848   -2.2979 C.ar    1  UNL1        0.1353
     26 C           2.8436   -2.2814   -3.4007 C.ar    1  UNL1       -0.0124
     27 C           3.1303   -3.5675   -2.9987 C.ar    1  UNL1       -0.0203
     28 C           1.6504    0.3631   -3.4800 C.3     1  UNL1        0.0788
     29 H          -6.8125   -2.6984    1.9889 H       1  UNL1        0.2098
     30 H           2.6698    0.3370    1.2420 H       1  UNL1        0.2017
     31 H           3.3503    0.4627   -0.2841 H       1  UNL1        0.2017
     32 H          -1.8254   -1.9333    1.0585 H       1  UNL1        0.0302
     33 H          -2.3210   -0.3471    1.7051 H       1  UNL1        0.0302
     34 H          -4.3853   -1.7715    2.0766 H       1  UNL1        0.0318
     35 H          -4.2197   -3.0421    0.9381 H       1  UNL1        0.0318
     36 H          -4.1288    0.8097   -0.6633 H       1  UNL1        0.0294
     37 H          -4.3200    0.7679    1.0386 H       1  UNL1        0.0294
     38 H          -6.2264   -2.4315   -0.1837 H       1  UNL1        0.0594
     39 H          -6.1063   -0.3414   -1.0906 H       1  UNL1        0.0291
     40 H          -6.5727    0.3346    0.4216 H       1  UNL1        0.0291
     41 H          -0.8016   -1.9448   -1.3159 H       1  UNL1        0.0296
     42 H          -0.5952   -0.3814   -2.1211 H       1  UNL1        0.0296
     43 H           0.4702   -1.5172    0.5562 H       1  UNL1        0.0326
     44 H           0.2867   -0.0660    1.5309 H       1  UNL1        0.0326
     45 H          -2.9625   -0.0540   -2.1899 H       1  UNL1        0.0560
     46 H          -2.5587   -1.6058   -2.9164 H       1  UNL1        0.0560
     47 H           1.3078   -0.1407   -1.2918 H       1  UNL1        0.0814
     48 H           1.1438    1.2866   -0.2920 H       1  UNL1        0.0814
     49 H           0.2891    1.6438   -1.4000 H       1  UNL1        0.0636
     50 H          -0.0789    4.0563   -1.4475 H       1  UNL1        0.0619
     51 H          -3.3396    3.5346    1.0950 H       1  UNL1        0.0829
     52 H           2.2117   -1.9464    0.8757 H       1  UNL1        0.0873
     53 H           3.9283   -1.5689    0.7161 H       1  UNL1        0.0873
     54 H          -1.9302    5.0089   -0.1738 H       1  UNL1        0.0633
     55 H           2.7137   -2.0005   -4.3852 H       1  UNL1        0.0659
     56 H           3.2405   -4.3633   -3.6464 H       1  UNL1        0.0694
     57 H           1.5201    1.4239   -3.4281 H       1  UNL1        0.0660
     58 H           0.6963   -0.1170   -3.4173 H       1  UNL1        0.0660
     59 H           2.1186    0.1063   -4.4072 H       1  UNL1        0.0660
@<TRIPOS>UNITY_ATOM_ATTR
6 1
charge 1
@<TRIPOS>BOND
     1     1    24   ar
     2     1    27   ar
     3     2    16    1
     4     3    12    1
     5     3    29    1
     6     4    25    1
     7     4    28    1
     8     5    17   ar
     9     5    21   ar
    10     6    18    1
    11     6    22    1
    12     6    30    1
    13     6    31    1
    14     7     2    1
    15     7     9    1
    16     7    10    1
    17     7    11    1
    18     8     9    1
    19     8    14    1
    20     8    15    1
    21     8    17    1
    22     9    32    1
    23     9    33    1
    24    10    12    1
    25    10    34    1
    26    10    35    1
    27    11    13    1
    28    11    36    1
    29    11    37    1
    30    12    13    1
    31    12    38    1
    32    13    39    1
    33    13    40    1
    34    14    16    1
    35    14    41    1
    36    14    42    1
    37    15    18    1
    38    15    43    1
    39    15    44    1
    40    16    45    1
    41    16    46    1
    42    17    19   ar
    43    18    47    1
    44    18    48    1
    45    19    20   ar
    46    19    49    1
    47    20    23   ar
    48    20    50    1
    49    21    23   ar
    50    21    51    1
    51    22    24    1
    52    22    52    1
    53    22    53    1
    54    23    54    1
    55    24    25   ar
    56    25    26   ar
    57    26    27   ar
    58    26    55    1
    59    27    56    1
    60    28    57    1
    61    28    58    1
    62    28    59    1
@<TRIPOS>MOLECULE
154925832
 59 62 0 0 0
SMALL
GASTEIGER

@<TRIPOS>ATOM
      1 S           3.8999   -3.3040    3.4284 S.2     1  UNL1       -0.0926
      2 O          -3.4780   -1.7041   -1.1056 O.3     1  UNL1       -0.3732
      3 O          -6.8095   -1.7965    1.6320 O.3     1  UNL1       -0.3917
      4 O           4.7736   -4.8168   -0.0196 O.3     1  UNL1       -0.4941
      5 N          -1.2616    1.9565    1.0637 N.ar    1  UNL1       -0.2593
      6 N           1.9227   -2.1473    1.1614 N.4     1  UNL1        0.2308
      7 C          -3.5817   -1.0970    0.1878 C.3     1  UNL1        0.0728
      8 C          -1.1415   -0.2325   -0.0614 C.3     1  UNL1        0.0224
      9 C          -2.1927   -0.9539    0.8332 C.3     1  UNL1       -0.0123
     10 C          -4.4808   -2.0092    1.0377 C.3     1  UNL1        0.0024
     11 C          -4.4284    0.1820    0.1498 C.3     1  UNL1       -0.0213
     12 C          -5.9002   -1.7207    0.5465 C.3     1  UNL1        0.0580
     13 C          -5.8625   -0.3127   -0.0491 C.3     1  UNL1       -0.0242
     14 C          -1.1858   -0.9535   -1.4364 C.3     1  UNL1       -0.0181
     15 C           0.2670   -0.4668    0.5390 C.3     1  UNL1       -0.0013
     16 C          -2.5969   -1.0429   -2.0073 C.3     1  UNL1        0.0492
     17 C          -1.3476    1.2945   -0.1120 C.ar    1  UNL1        0.0478
     18 C           0.6009   -1.9512    0.5778 C.3     1  UNL1       -0.0325
     19 C          -1.6052    1.9052   -1.3288 C.ar    1  UNL1       -0.0398
     20 C          -1.7861    3.2838   -1.3397 C.ar    1  UNL1       -0.0586
     21 C          -1.4430    3.2952    1.0137 C.ar    1  UNL1        0.0279
     22 C           2.2719   -3.5605    1.1941 C.3     1  UNL1        0.0021
     23 C          -1.7052    3.9994   -0.1504 C.ar    1  UNL1       -0.0436
     24 C           3.6271   -3.7891    1.8090 C.ar    1  UNL1        0.0756
     25 C           4.7474   -4.3580    1.2441 C.ar    1  UNL1        0.1353
     26 C           5.8438   -4.3964    2.1527 C.ar    1  UNL1       -0.0124
     27 C           5.5202   -3.8553    3.3775 C.ar    1  UNL1       -0.0203
     28 C           3.5732   -4.6975   -0.7960 C.3     1  UNL1        0.0788
     29 H          -6.8125   -2.6984    1.9889 H       1  UNL1        0.2098
     30 H           1.9253   -1.7807    2.1133 H       1  UNL1        0.2017
     31 H           2.6083   -1.6554    0.5883 H       1  UNL1        0.2017
     32 H          -1.8254   -1.9333    1.0585 H       1  UNL1        0.0302
     33 H          -2.3210   -0.3471    1.7051 H       1  UNL1        0.0302
     34 H          -4.3853   -1.7715    2.0766 H       1  UNL1        0.0318
     35 H          -4.2197   -3.0421    0.9381 H       1  UNL1        0.0318
     36 H          -4.1288    0.8097   -0.6633 H       1  UNL1        0.0294
     37 H          -4.3200    0.7679    1.0386 H       1  UNL1        0.0294
     38 H          -6.2264   -2.4315   -0.1837 H       1  UNL1        0.0594
     39 H          -6.1063   -0.3414   -1.0906 H       1  UNL1        0.0291
     40 H          -6.5727    0.3346    0.4216 H       1  UNL1        0.0291
     41 H          -0.8016   -1.9448   -1.3159 H       1  UNL1        0.0296
     42 H          -0.5952   -0.3814   -2.1211 H       1  UNL1        0.0296
     43 H           0.2928   -0.0758    1.5346 H       1  UNL1        0.0326
     44 H           0.9878    0.0297   -0.0764 H       1  UNL1        0.0326
     45 H          -2.9625   -0.0540   -2.1899 H       1  UNL1        0.0560
     46 H          -2.5587   -1.6058   -2.9164 H       1  UNL1        0.0560
     47 H          -0.1281   -2.4635    1.1702 H       1  UNL1        0.0814
     48 H           0.5947   -2.3399   -0.4191 H       1  UNL1        0.0814
     49 H          -1.6610    1.3541   -2.1996 H       1  UNL1        0.0636
     50 H          -1.9796    3.7739   -2.2271 H       1  UNL1        0.0619
     51 H          -1.3825    3.8253    1.8971 H       1  UNL1        0.0829
     52 H           2.2778   -3.9388    0.1931 H       1  UNL1        0.0873
     53 H           1.5454   -4.0682    1.7936 H       1  UNL1        0.0873
     54 H          -1.8364    5.0229   -0.1351 H       1  UNL1        0.0633
     55 H           6.7717   -4.7840    1.9206 H       1  UNL1        0.0659
     56 H           6.1769   -3.7898    4.1709 H       1  UNL1        0.0694
     57 H           3.7392   -5.1004   -1.7734 H       1  UNL1        0.0660
     58 H           3.3019   -3.6657   -0.8769 H       1  UNL1        0.0660
     59 H           2.7834   -5.2375   -0.3170 H       1  UNL1        0.0660
@<TRIPOS>UNITY_ATOM_ATTR
6 1
charge 1
@<TRIPOS>BOND
     1     1    24   ar
     2     1    27   ar
     3     2    16    1
     4     3    12    1
     5     3    29    1
     6     4    25    1
     7     4    28    1
     8     5    17   ar
     9     5    21   ar
    10     6    18    1
    11     6    22    1
    12     6    30    1
    13     6    31    1
    14     7     2    1
    15     7     9    1
    16     7    10    1
    17     7    11    1
    18     8     9    1
    19     8    14    1
    20     8    15    1
    21     8    17    1
    22     9    32    1
    23     9    33    1
    24    10    12    1
    25    10    34    1
    26    10    35    1
    27    11    13    1
    28    11    36    1
    29    11    37    1
    30    12    13    1
    31    12    38    1
    32    13    39    1
    33    13    40    1
    34    14    16    1
    35    14    41    1
    36    14    42    1
    37    15    18    1
    38    15    43    1
    39    15    44    1
    40    16    45    1
    41    16    46    1
    42    17    19   ar
    43    18    47    1
    44    18    48    1
    45    19    20   ar
    46    19    49    1
    47    20    23   ar
    48    20    50    1
    49    21    23   ar
    50    21    51    1
    51    22    24    1
    52    22    52    1
    53    22    53    1
    54    23    54    1
    55    24    25   ar
    56    25    26   ar
    57    26    27   ar
    58    26    55    1
    59    27    56    1
    60    28    57    1
    61    28    58    1
    62    28    59    1
@<TRIPOS>MOLECULE
154925832
 59 62 0 0 0
SMALL
GASTEIGER

@<TRIPOS>ATOM
      1 S           1.2966    4.6380   -0.3154 S.2     1  UNL1       -0.0926
      2 O          -3.4780   -1.7041   -1.1056 O.3     1  UNL1       -0.3732
      3 O          -6.8095   -1.7965    1.6320 O.3     1  UNL1       -0.3917
      4 O          -0.1425    3.9535    3.2061 O.3     1  UNL1       -0.4941
      5 N          -1.5809    1.8341   -1.3295 N.ar    1  UNL1       -0.2593
      6 N           1.0858    1.6705   -0.3064 N.4     1  UNL1        0.2308
      7 C          -3.5817   -1.0970    0.1878 C.3     1  UNL1        0.0728
      8 C          -1.1415   -0.2325   -0.0614 C.3     1  UNL1        0.0224
      9 C          -2.1927   -0.9539    0.8332 C.3     1  UNL1       -0.0123
     10 C          -4.4808   -2.0092    1.0377 C.3     1  UNL1        0.0024
     11 C          -4.4284    0.1820    0.1498 C.3     1  UNL1       -0.0213
     12 C          -5.9002   -1.7207    0.5465 C.3     1  UNL1        0.0580
     13 C          -5.8625   -0.3127   -0.0491 C.3     1  UNL1       -0.0242
     14 C          -1.1858   -0.9535   -1.4364 C.3     1  UNL1       -0.0181
     15 C           0.2670   -0.4668    0.5390 C.3     1  UNL1       -0.0013
     16 C          -2.5969   -1.0429   -2.0073 C.3     1  UNL1        0.0492
     17 C          -1.3476    1.2945   -0.1120 C.ar    1  UNL1        0.0478
     18 C           1.3342    0.2337   -0.2898 C.3     1  UNL1       -0.0325
     19 C          -1.2863    2.0274    1.0623 C.ar    1  UNL1       -0.0398
     20 C          -1.4765    3.4025    0.9819 C.ar    1  UNL1       -0.0586
     21 C          -1.7610    3.1734   -1.3683 C.ar    1  UNL1        0.0279
     22 C           1.1302    2.2211    1.0408 C.3     1  UNL1        0.0021
     23 C          -1.7188    3.9942   -0.2528 C.ar    1  UNL1       -0.0436
     24 C           0.8594    3.7021    1.0503 C.ar    1  UNL1        0.0756
     25 C           0.2837    4.4688    2.0395 C.ar    1  UNL1        0.1353
     26 C           0.2003    5.8424    1.6713 C.ar    1  UNL1       -0.0124
     27 C           0.7155    6.0736    0.4148 C.ar    1  UNL1       -0.0203
     28 C          -0.0969    4.7997    4.3637 C.3     1  UNL1        0.0788
     29 H          -6.8125   -2.6984    1.9889 H       1  UNL1        0.2098
     30 H           0.1649    1.8456   -0.7085 H       1  UNL1        0.2017
     31 H           1.8104    2.1200   -0.8662 H       1  UNL1        0.2017
     32 H          -1.8254   -1.9333    1.0585 H       1  UNL1        0.0302
     33 H          -2.3210   -0.3471    1.7051 H       1  UNL1        0.0302
     34 H          -4.3853   -1.7715    2.0766 H       1  UNL1        0.0318
     35 H          -4.2197   -3.0421    0.9381 H       1  UNL1        0.0318
     36 H          -4.1288    0.8097   -0.6633 H       1  UNL1        0.0294
     37 H          -4.3200    0.7679    1.0386 H       1  UNL1        0.0294
     38 H          -6.2264   -2.4315   -0.1837 H       1  UNL1        0.0594
     39 H          -6.1063   -0.3414   -1.0906 H       1  UNL1        0.0291
     40 H          -6.5727    0.3346    0.4216 H       1  UNL1        0.0291
     41 H          -0.8016   -1.9448   -1.3159 H       1  UNL1        0.0296
     42 H          -0.5952   -0.3814   -2.1211 H       1  UNL1        0.0296
     43 H           0.4702   -1.5172    0.5562 H       1  UNL1        0.0326
     44 H           0.2867   -0.0660    1.5309 H       1  UNL1        0.0326
     45 H          -2.9625   -0.0540   -2.1899 H       1  UNL1        0.0560
     46 H          -2.5587   -1.6058   -2.9164 H       1  UNL1        0.0560
     47 H           2.2966    0.0449    0.1383 H       1  UNL1        0.0814
     48 H           1.3043   -0.1406   -1.2917 H       1  UNL1        0.0814
     49 H          -1.1050    1.5672    1.9681 H       1  UNL1        0.0636
     50 H          -1.4382    3.9816    1.8353 H       1  UNL1        0.0619
     51 H          -1.9410    3.6113   -2.2852 H       1  UNL1        0.0829
     52 H           2.1008    2.0441    1.4552 H       1  UNL1        0.0873
     53 H           0.3701    1.7408    1.6210 H       1  UNL1        0.0873
     54 H          -1.8627    5.0127   -0.3358 H       1  UNL1        0.0633
     55 H          -0.1992    6.5779    2.2750 H       1  UNL1        0.0659
     56 H           0.7474    7.0025   -0.0336 H       1  UNL1        0.0694
     57 H          -0.4632    4.2619    5.2131 H       1  UNL1        0.0660
     58 H          -0.7063    5.6634    4.1983 H       1  UNL1        0.0660
     59 H           0.9129    5.1047    4.5430 H       1  UNL1        0.0660
@<TRIPOS>UNITY_ATOM_ATTR
6 1
charge 1
@<TRIPOS>BOND
     1     1    24   ar
     2     1    27   ar
     3     2    16    1
     4     3    12    1
     5     3    29    1
     6     4    25    1
     7     4    28    1
     8     5    17   ar
     9     5    21   ar
    10     6    18    1
    11     6    22    1
    12     6    30    1
    13     6    31    1
    14     7     2    1
    15     7     9    1
    16     7    10    1
    17     7    11    1
    18     8     9    1
    19     8    14    1
    20     8    15    1
    21     8    17    1
    22     9    32    1
    23     9    33    1
    24    10    12    1
    25    10    34    1
    26    10    35    1
    27    11    13    1
    28    11    36    1
    29    11    37    1
    30    12    13    1
    31    12    38    1
    32    13    39    1
    33    13    40    1
    34    14    16    1
    35    14    41    1
    36    14    42    1
    37    15    18    1
    38    15    43    1
    39    15    44    1
    40    16    45    1
    41    16    46    1
    42    17    19   ar
    43    18    47    1
    44    18    48    1
    45    19    20   ar
    46    19    49    1
    47    20    23   ar
    48    20    50    1
    49    21    23   ar
    50    21    51    1
    51    22    24    1
    52    22    52    1
    53    22    53    1
    54    23    54    1
    55    24    25   ar
    56    25    26   ar
    57    26    27   ar
    58    26    55    1
    59    27    56    1
    60    28    57    1
    61    28    58    1
    62    28    59    1
@<TRIPOS>MOLECULE
154925832
 59 62 0 0 0
SMALL
GASTEIGER

@<TRIPOS>ATOM
      1 S           4.9138   -0.6676    2.1027 S.2     1  UNL1       -0.0926
      2 O          -3.4780   -1.7041   -1.1056 O.3     1  UNL1       -0.3732
      3 O          -6.8095   -1.7965    1.6320 O.3     1  UNL1       -0.3917
      4 O           4.9111   -3.7063   -0.2862 O.3     1  UNL1       -0.4941
      5 N          -2.3814    1.7902    0.6045 N.ar    1  UNL1       -0.2593
      6 N           2.6511   -0.0149    0.2847 N.4     1  UNL1        0.2308
      7 C          -3.5817   -1.0970    0.1878 C.3     1  UNL1        0.0728
      8 C          -1.1415   -0.2325   -0.0614 C.3     1  UNL1        0.0224
      9 C          -2.1927   -0.9539    0.8332 C.3     1  UNL1       -0.0123
     10 C          -4.4808   -2.0092    1.0377 C.3     1  UNL1        0.0024
     11 C          -4.4284    0.1820    0.1498 C.3     1  UNL1       -0.0213
     12 C          -5.9002   -1.7207    0.5465 C.3     1  UNL1        0.0580
     13 C          -5.8625   -0.3127   -0.0491 C.3     1  UNL1       -0.0242
     14 C          -1.1858   -0.9535   -1.4364 C.3     1  UNL1       -0.0181
     15 C           0.2670   -0.4668    0.5390 C.3     1  UNL1       -0.0013
     16 C          -2.5969   -1.0429   -2.0073 C.3     1  UNL1        0.0492
     17 C          -1.3476    1.2945   -0.1120 C.ar    1  UNL1        0.0478
     18 C           1.3342    0.2337   -0.2898 C.3     1  UNL1       -0.0325
     19 C          -0.4864    2.0714   -0.8701 C.ar    1  UNL1       -0.0398
     20 C          -0.6998    3.4452   -0.8943 C.ar    1  UNL1       -0.0586
     21 C          -2.5576    3.1296    0.5569 C.ar    1  UNL1        0.0279
     22 C           2.9533   -1.4392    0.2945 C.3     1  UNL1        0.0021
     23 C          -1.7531    3.9923   -0.1700 C.ar    1  UNL1       -0.0436
     24 C           4.3027   -1.7219    0.8997 C.ar    1  UNL1        0.0756
     25 C           5.1748   -2.7519    0.6236 C.ar    1  UNL1        0.1353
     26 C           6.3600   -2.6747    1.4101 C.ar    1  UNL1       -0.0124
     27 C           6.3490   -1.5886    2.2574 C.ar    1  UNL1       -0.0203
     28 C           3.5366   -4.0503   -0.5106 C.3     1  UNL1        0.0788
     29 H          -6.8125   -2.6984    1.9889 H       1  UNL1        0.2098
     30 H           2.6698    0.3370    1.2420 H       1  UNL1        0.2017
     31 H           3.3503    0.4627   -0.2841 H       1  UNL1        0.2017
     32 H          -1.8254   -1.9333    1.0585 H       1  UNL1        0.0302
     33 H          -2.3210   -0.3471    1.7051 H       1  UNL1        0.0302
     34 H          -4.3853   -1.7715    2.0766 H       1  UNL1        0.0318
     35 H          -4.2197   -3.0421    0.9381 H       1  UNL1        0.0318
     36 H          -4.1288    0.8097   -0.6633 H       1  UNL1        0.0294
     37 H          -4.3200    0.7679    1.0386 H       1  UNL1        0.0294
     38 H          -6.2264   -2.4315   -0.1837 H       1  UNL1        0.0594
     39 H          -6.1063   -0.3414   -1.0906 H       1  UNL1        0.0291
     40 H          -6.5727    0.3346    0.4216 H       1  UNL1        0.0291
     41 H          -0.8016   -1.9448   -1.3159 H       1  UNL1        0.0296
     42 H          -0.5952   -0.3814   -2.1211 H       1  UNL1        0.0296
     43 H           0.4702   -1.5172    0.5562 H       1  UNL1        0.0326
     44 H           0.2867   -0.0660    1.5309 H       1  UNL1        0.0326
     45 H          -2.9625   -0.0540   -2.1899 H       1  UNL1        0.0560
     46 H          -2.5587   -1.6058   -2.9164 H       1  UNL1        0.0560
     47 H           1.3078   -0.1407   -1.2918 H       1  UNL1        0.0814
     48 H           1.1438    1.2866   -0.2920 H       1  UNL1        0.0814
     49 H           0.2891    1.6438   -1.4000 H       1  UNL1        0.0636
     50 H          -0.0789    4.0563   -1.4475 H       1  UNL1        0.0619
     51 H          -3.3396    3.5346    1.0950 H       1  UNL1        0.0829
     52 H           2.9425   -1.8023   -0.7120 H       1  UNL1        0.0873
     53 H           2.2128   -1.9316    0.8897 H       1  UNL1        0.0873
     54 H          -1.9302    5.0089   -0.1738 H       1  UNL1        0.0633
     55 H           7.1358   -3.3528    1.3519 H       1  UNL1        0.0659
     56 H           7.1154   -1.3572    2.9087 H       1  UNL1        0.0694
     57 H           3.4778   -4.8175   -1.2543 H       1  UNL1        0.0660
     58 H           3.0030   -3.1860   -0.8467 H       1  UNL1        0.0660
     59 H           3.1039   -4.4042    0.4018 H       1  UNL1        0.0660
@<TRIPOS>UNITY_ATOM_ATTR
6 1
charge 1
@<TRIPOS>BOND
     1     1    24   ar
     2     1    27   ar
     3     2    16    1
     4     3    12    1
     5     3    29    1
     6     4    25    1
     7     4    28    1
     8     5    17   ar
     9     5    21   ar
    10     6    18    1
    11     6    22    1
    12     6    30    1
    13     6    31    1
    14     7     2    1
    15     7     9    1
    16     7    10    1
    17     7    11    1
    18     8     9    1
    19     8    14    1
    20     8    15    1
    21     8    17    1
    22     9    32    1
    23     9    33    1
    24    10    12    1
    25    10    34    1
    26    10    35    1
    27    11    13    1
    28    11    36    1
    29    11    37    1
    30    12    13    1
    31    12    38    1
    32    13    39    1
    33    13    40    1
    34    14    16    1
    35    14    41    1
    36    14    42    1
    37    15    18    1
    38    15    43    1
    39    15    44    1
    40    16    45    1
    41    16    46    1
    42    17    19   ar
    43    18    47    1
    44    18    48    1
    45    19    20   ar
    46    19    49    1
    47    20    23   ar
    48    20    50    1
    49    21    23   ar
    50    21    51    1
    51    22    24    1
    52    22    52    1
    53    22    53    1
    54    23    54    1
    55    24    25   ar
    56    25    26   ar
    57    26    27   ar
    58    26    55    1
    59    27    56    1
    60    28    57    1
    61    28    58    1
    62    28    59    1
@<TRIPOS>MOLECULE
154925832
 59 62 0 0 0
SMALL
GASTEIGER

@<TRIPOS>ATOM
      1 S           2.0403    2.7946   -1.1412 S.2     1  UNL1       -0.0926
      2 O          -3.4780   -1.7041   -1.1056 O.3     1  UNL1       -0.3732
      3 O          -6.8095   -1.7965    1.6320 O.3     1  UNL1       -0.3917
      4 O           5.5438    2.8787    0.4893 O.3     1  UNL1       -0.4941
      5 N          -0.9732    1.9188   -1.2513 N.ar    1  UNL1       -0.2593
      6 N           2.6511   -0.0149    0.2847 N.4     1  UNL1        0.2308
      7 C          -3.5817   -1.0970    0.1878 C.3     1  UNL1        0.0728
      8 C          -1.1415   -0.2325   -0.0614 C.3     1  UNL1        0.0224
      9 C          -2.1927   -0.9539    0.8332 C.3     1  UNL1       -0.0123
     10 C          -4.4808   -2.0092    1.0377 C.3     1  UNL1        0.0024
     11 C          -4.4284    0.1820    0.1498 C.3     1  UNL1       -0.0213
     12 C          -5.9002   -1.7207    0.5465 C.3     1  UNL1        0.0580
     13 C          -5.8625   -0.3127   -0.0491 C.3     1  UNL1       -0.0242
     14 C          -1.1858   -0.9535   -1.4364 C.3     1  UNL1       -0.0181
     15 C           0.2670   -0.4668    0.5390 C.3     1  UNL1       -0.0013
     16 C          -2.5969   -1.0429   -2.0073 C.3     1  UNL1        0.0492
     17 C          -1.3476    1.2945   -0.1120 C.ar    1  UNL1        0.0478
     18 C           1.3342    0.2337   -0.2898 C.3     1  UNL1       -0.0325
     19 C          -1.8934    1.9429    0.9841 C.ar    1  UNL1       -0.0398
     20 C          -2.0661    3.3204    0.9060 C.ar    1  UNL1       -0.0586
     21 C          -1.1561    3.2576   -1.2905 C.ar    1  UNL1        0.0279
     22 C           3.6886    0.6598   -0.4825 C.3     1  UNL1        0.0021
     23 C          -1.6928    3.9978   -0.2495 C.ar    1  UNL1       -0.0436
     24 C           3.4921    2.1524   -0.4994 C.ar    1  UNL1        0.0756
     25 C           4.3432    3.1410   -0.0563 C.ar    1  UNL1        0.1353
     26 C           3.7960    4.4425   -0.2461 C.ar    1  UNL1       -0.0124
     27 C           2.5477    4.3995   -0.8271 C.ar    1  UNL1       -0.0203
     28 C           6.0413    3.7945    1.4750 C.3     1  UNL1        0.0788
     29 H          -6.8125   -2.6984    1.9889 H       1  UNL1        0.2098
     30 H           2.8328   -1.0186    0.2815 H       1  UNL1        0.2017
     31 H           2.6641    0.3464    1.2385 H       1  UNL1        0.2017
     32 H          -1.8254   -1.9333    1.0585 H       1  UNL1        0.0302
     33 H          -2.3210   -0.3471    1.7051 H       1  UNL1        0.0302
     34 H          -4.3853   -1.7715    2.0766 H       1  UNL1        0.0318
     35 H          -4.2197   -3.0421    0.9381 H       1  UNL1        0.0318
     36 H          -4.1288    0.8097   -0.6633 H       1  UNL1        0.0294
     37 H          -4.3200    0.7679    1.0386 H       1  UNL1        0.0294
     38 H          -6.2264   -2.4315   -0.1837 H       1  UNL1        0.0594
     39 H          -6.1063   -0.3414   -1.0906 H       1  UNL1        0.0291
     40 H          -6.5727    0.3346    0.4216 H       1  UNL1        0.0291
     41 H          -0.8016   -1.9448   -1.3159 H       1  UNL1        0.0296
     42 H          -0.5952   -0.3814   -2.1211 H       1  UNL1        0.0296
     43 H           0.4702   -1.5172    0.5562 H       1  UNL1        0.0326
     44 H           0.2867   -0.0660    1.5309 H       1  UNL1        0.0326
     45 H          -2.9625   -0.0540   -2.1899 H       1  UNL1        0.0560
     46 H          -2.5587   -1.6058   -2.9164 H       1  UNL1        0.0560
     47 H           1.3078   -0.1407   -1.2918 H       1  UNL1        0.0814
     48 H           1.1438    1.2866   -0.2920 H       1  UNL1        0.0814
     49 H          -2.1633    1.4199    1.8319 H       1  UNL1        0.0636
     50 H          -2.4697    3.8380    1.7025 H       1  UNL1        0.0619
     51 H          -0.8790    3.7592   -2.1488 H       1  UNL1        0.0829
     52 H           3.6666    0.2964   -1.4887 H       1  UNL1        0.0873
     53 H           4.6309    0.4542   -0.0190 H       1  UNL1        0.0873
     54 H          -1.8117    5.0198   -0.3292 H       1  UNL1        0.0633
     55 H           4.2782    5.3151    0.0203 H       1  UNL1        0.0659
     56 H           1.9847    5.2359   -1.0471 H       1  UNL1        0.0694
     57 H           6.9987    3.4627    1.8191 H       1  UNL1        0.0660
     58 H           5.3606    3.8356    2.2994 H       1  UNL1        0.0660
     59 H           6.1359    4.7683    1.0417 H       1  UNL1        0.0660
@<TRIPOS>UNITY_ATOM_ATTR
6 1
charge 1
@<TRIPOS>BOND
     1     1    24   ar
     2     1    27   ar
     3     2    16    1
     4     3    12    1
     5     3    29    1
     6     4    25    1
     7     4    28    1
     8     5    17   ar
     9     5    21   ar
    10     6    18    1
    11     6    22    1
    12     6    30    1
    13     6    31    1
    14     7     2    1
    15     7     9    1
    16     7    10    1
    17     7    11    1
    18     8     9    1
    19     8    14    1
    20     8    15    1
    21     8    17    1
    22     9    32    1
    23     9    33    1
    24    10    12    1
    25    10    34    1
    26    10    35    1
    27    11    13    1
    28    11    36    1
    29    11    37    1
    30    12    13    1
    31    12    38    1
    32    13    39    1
    33    13    40    1
    34    14    16    1
    35    14    41    1
    36    14    42    1
    37    15    18    1
    38    15    43    1
    39    15    44    1
    40    16    45    1
    41    16    46    1
    42    17    19   ar
    43    18    47    1
    44    18    48    1
    45    19    20   ar
    46    19    49    1
    47    20    23   ar
    48    20    50    1
    49    21    23   ar
    50    21    51    1
    51    22    24    1
    52    22    52    1
    53    22    53    1
    54    23    54    1
    55    24    25   ar
    56    25    26   ar
    57    26    27   ar
    58    26    55    1
    59    27    56    1
    60    28    57    1
    61    28    58    1
    62    28    59    1
@<TRIPOS>MOLECULE
154925832
 59 62 0 0 0
SMALL
GASTEIGER

@<TRIPOS>ATOM
      1 S           1.5270   -6.0496    2.1727 S.2     1  UNL1       -0.0926
      2 O          -3.4780   -1.7041   -1.1056 O.3     1  UNL1       -0.3732
      3 O          -6.8095   -1.7965    1.6320 O.3     1  UNL1       -0.3917
      4 O          -0.2473   -2.6496    2.6547 O.3     1  UNL1       -0.4941
      5 N          -1.8975    1.8680    0.9819 N.ar    1  UNL1       -0.2593
      6 N           1.9227   -2.1473    1.1614 N.4     1  UNL1        0.2308
      7 C          -3.5817   -1.0970    0.1878 C.3     1  UNL1        0.0728
      8 C          -1.1415   -0.2325   -0.0614 C.3     1  UNL1        0.0224
      9 C          -2.1927   -0.9539    0.8332 C.3     1  UNL1       -0.0123
     10 C          -4.4808   -2.0092    1.0377 C.3     1  UNL1        0.0024
     11 C          -4.4284    0.1820    0.1498 C.3     1  UNL1       -0.0213
     12 C          -5.9002   -1.7207    0.5465 C.3     1  UNL1        0.0580
     13 C          -5.8625   -0.3127   -0.0491 C.3     1  UNL1       -0.0242
     14 C          -1.1858   -0.9535   -1.4364 C.3     1  UNL1       -0.0181
     15 C           0.2670   -0.4668    0.5390 C.3     1  UNL1       -0.0013
     16 C          -2.5969   -1.0429   -2.0073 C.3     1  UNL1        0.0492
     17 C          -1.3476    1.2945   -0.1120 C.ar    1  UNL1        0.0478
     18 C           0.6009   -1.9512    0.5778 C.3     1  UNL1       -0.0325
     19 C          -0.9698    1.9936   -1.2471 C.ar    1  UNL1       -0.0398
     20 C          -1.1692    3.3697   -1.2603 C.ar    1  UNL1       -0.0586
     21 C          -2.0760    3.2071    0.9324 C.ar    1  UNL1        0.0279
     22 C           2.2719   -3.5605    1.1941 C.3     1  UNL1        0.0021
     23 C          -1.7324    3.9956   -0.1539 C.ar    1  UNL1       -0.0436
     24 C           1.2836   -4.3638    1.9970 C.ar    1  UNL1        0.0756
     25 C           0.1489   -3.9345    2.6498 C.ar    1  UNL1        0.1353
     26 C          -0.5293   -5.0036    3.3028 C.ar    1  UNL1       -0.0124
     27 C           0.1125   -6.2094    3.1244 C.ar    1  UNL1       -0.0203
     28 C          -0.9632   -2.1782    3.8050 C.3     1  UNL1        0.0788
     29 H          -6.8125   -2.6984    1.9889 H       1  UNL1        0.2098
     30 H           1.9253   -1.7807    2.1133 H       1  UNL1        0.2017
     31 H           2.6083   -1.6554    0.5883 H       1  UNL1        0.2017
     32 H          -1.8254   -1.9333    1.0585 H       1  UNL1        0.0302
     33 H          -2.3210   -0.3471    1.7051 H       1  UNL1        0.0302
     34 H          -4.3853   -1.7715    2.0766 H       1  UNL1        0.0318
     35 H          -4.2197   -3.0421    0.9381 H       1  UNL1        0.0318
     36 H          -4.1288    0.8097   -0.6633 H       1  UNL1        0.0294
     37 H          -4.3200    0.7679    1.0386 H       1  UNL1        0.0294
     38 H          -6.2264   -2.4315   -0.1837 H       1  UNL1        0.0594
     39 H          -6.1063   -0.3414   -1.0906 H       1  UNL1        0.0291
     40 H          -6.5727    0.3346    0.4216 H       1  UNL1        0.0291
     41 H          -0.8016   -1.9448   -1.3159 H       1  UNL1        0.0296
     42 H          -0.5952   -0.3814   -2.1211 H       1  UNL1        0.0296
     43 H           0.2928   -0.0758    1.5346 H       1  UNL1        0.0326
     44 H           0.9878    0.0297   -0.0764 H       1  UNL1        0.0326
     45 H          -2.9625   -0.0540   -2.1899 H       1  UNL1        0.0560
     46 H          -2.5587   -1.6058   -2.9164 H       1  UNL1        0.0560
     47 H          -0.1281   -2.4635    1.1702 H       1  UNL1        0.0814
     48 H           0.5947   -2.3399   -0.4191 H       1  UNL1        0.0814
     49 H          -0.5535    1.5083   -2.0572 H       1  UNL1        0.0636
     50 H          -0.9002    3.9242   -2.0881 H       1  UNL1        0.0619
     51 H          -2.4939    3.6706    1.7543 H       1  UNL1        0.0829
     52 H           3.2421   -3.6673    1.6326 H       1  UNL1        0.0873
     53 H           2.2605   -3.9286    0.1894 H       1  UNL1        0.0873
     54 H          -1.8897    5.0155   -0.1421 H       1  UNL1        0.0633
     55 H          -1.3993   -4.8884    3.8458 H       1  UNL1        0.0659
     56 H          -0.2199   -7.1036    3.5179 H       1  UNL1        0.0694
     57 H          -1.2131   -1.1464    3.6714 H       1  UNL1        0.0660
     58 H          -0.3507   -2.2871    4.6755 H       1  UNL1        0.0660
     59 H          -1.8598   -2.7495    3.9260 H       1  UNL1        0.0660
@<TRIPOS>UNITY_ATOM_ATTR
6 1
charge 1
@<TRIPOS>BOND
     1     1    24   ar
     2     1    27   ar
     3     2    16    1
     4     3    12    1
     5     3    29    1
     6     4    25    1
     7     4    28    1
     8     5    17   ar
     9     5    21   ar
    10     6    18    1
    11     6    22    1
    12     6    30    1
    13     6    31    1
    14     7     2    1
    15     7     9    1
    16     7    10    1
    17     7    11    1
    18     8     9    1
    19     8    14    1
    20     8    15    1
    21     8    17    1
    22     9    32    1
    23     9    33    1
    24    10    12    1
    25    10    34    1
    26    10    35    1
    27    11    13    1
    28    11    36    1
    29    11    37    1
    30    12    13    1
    31    12    38    1
    32    13    39    1
    33    13    40    1
    34    14    16    1
    35    14    41    1
    36    14    42    1
    37    15    18    1
    38    15    43    1
    39    15    44    1
    40    16    45    1
    41    16    46    1
    42    17    19   ar
    43    18    47    1
    44    18    48    1
    45    19    20   ar
    46    19    49    1
    47    20    23   ar
    48    20    50    1
    49    21    23   ar
    50    21    51    1
    51    22    24    1
    52    22    52    1
    53    22    53    1
    54    23    54    1
    55    24    25   ar
    56    25    26   ar
    57    26    27   ar
    58    26    55    1
    59    27    56    1
    60    28    57    1
    61    28    58    1
    62    28    59    1
@<TRIPOS>MOLECULE
154925832
 59 62 0 0 0
SMALL
GASTEIGER

@<TRIPOS>ATOM
      1 S           0.8732    4.5281   -2.3504 S.2     1  UNL1       -0.0926
      2 O          -3.4780   -1.7041   -1.1056 O.3     1  UNL1       -0.3732
      3 O          -6.8095   -1.7965    1.6320 O.3     1  UNL1       -0.3917
      4 O           3.1445    4.5145    0.7771 O.3     1  UNL1       -0.4941
      5 N          -1.5809    1.8341   -1.3295 N.ar    1  UNL1       -0.2593
      6 N           1.0858    1.6705   -0.3064 N.4     1  UNL1        0.2308
      7 C          -3.5817   -1.0970    0.1878 C.3     1  UNL1        0.0728
      8 C          -1.1415   -0.2325   -0.0614 C.3     1  UNL1        0.0224
      9 C          -2.1927   -0.9539    0.8332 C.3     1  UNL1       -0.0123
     10 C          -4.4808   -2.0092    1.0377 C.3     1  UNL1        0.0024
     11 C          -4.4284    0.1820    0.1498 C.3     1  UNL1       -0.0213
     12 C          -5.9002   -1.7207    0.5465 C.3     1  UNL1        0.0580
     13 C          -5.8625   -0.3127   -0.0491 C.3     1  UNL1       -0.0242
     14 C          -1.1858   -0.9535   -1.4364 C.3     1  UNL1       -0.0181
     15 C           0.2670   -0.4668    0.5390 C.3     1  UNL1       -0.0013
     16 C          -2.5969   -1.0429   -2.0073 C.3     1  UNL1        0.0492
     17 C          -1.3476    1.2945   -0.1120 C.ar    1  UNL1        0.0478
     18 C           1.3342    0.2337   -0.2898 C.3     1  UNL1       -0.0325
     19 C          -1.2863    2.0274    1.0623 C.ar    1  UNL1       -0.0398
     20 C          -1.4765    3.4025    0.9819 C.ar    1  UNL1       -0.0586
     21 C          -1.7610    3.1734   -1.3683 C.ar    1  UNL1        0.0279
     22 C           2.0858    2.3615   -1.1080 C.3     1  UNL1        0.0021
     23 C          -1.7188    3.9942   -0.2528 C.ar    1  UNL1       -0.0436
     24 C           1.8593    3.8498   -1.1258 C.ar    1  UNL1        0.0756
     25 C           2.3475    4.8084   -0.2652 C.ar    1  UNL1        0.1353
     26 C           1.9061    6.1167   -0.6158 C.ar    1  UNL1       -0.0124
     27 C           1.0973    6.1086   -1.7310 C.ar    1  UNL1       -0.0203
     28 C           4.0976    5.5054    1.1864 C.3     1  UNL1        0.0788
     29 H          -6.8125   -2.6984    1.9889 H       1  UNL1        0.2098
     30 H           1.1196    2.0263    0.6490 H       1  UNL1        0.2017
     31 H           0.1670    1.8376   -0.7166 H       1  UNL1        0.2017
     32 H          -1.8254   -1.9333    1.0585 H       1  UNL1        0.0302
     33 H          -2.3210   -0.3471    1.7051 H       1  UNL1        0.0302
     34 H          -4.3853   -1.7715    2.0766 H       1  UNL1        0.0318
     35 H          -4.2197   -3.0421    0.9381 H       1  UNL1        0.0318
     36 H          -4.1288    0.8097   -0.6633 H       1  UNL1        0.0294
     37 H          -4.3200    0.7679    1.0386 H       1  UNL1        0.0294
     38 H          -6.2264   -2.4315   -0.1837 H       1  UNL1        0.0594
     39 H          -6.1063   -0.3414   -1.0906 H       1  UNL1        0.0291
     40 H          -6.5727    0.3346    0.4216 H       1  UNL1        0.0291
     41 H          -0.8016   -1.9448   -1.3159 H       1  UNL1        0.0296
     42 H          -0.5952   -0.3814   -2.1211 H       1  UNL1        0.0296
     43 H           0.4702   -1.5172    0.5562 H       1  UNL1        0.0326
     44 H           0.2867   -0.0660    1.5309 H       1  UNL1        0.0326
     45 H          -2.9625   -0.0540   -2.1899 H       1  UNL1        0.0560
     46 H          -2.5587   -1.6058   -2.9164 H       1  UNL1        0.0560
     47 H           2.2966    0.0449    0.1383 H       1  UNL1        0.0814
     48 H           1.3043   -0.1406   -1.2917 H       1  UNL1        0.0814
     49 H          -1.1050    1.5672    1.9681 H       1  UNL1        0.0636
     50 H          -1.4382    3.9816    1.8353 H       1  UNL1        0.0619
     51 H          -1.9410    3.6113   -2.2852 H       1  UNL1        0.0829
     52 H           2.0404    1.9925   -2.1114 H       1  UNL1        0.0873
     53 H           3.0457    2.1769   -0.6726 H       1  UNL1        0.0873
     54 H          -1.8627    5.0127   -0.3358 H       1  UNL1        0.0633
     55 H           2.1621    6.9703   -0.0954 H       1  UNL1        0.0659
     56 H           0.6762    6.9552   -2.1443 H       1  UNL1        0.0694
     57 H           4.6585    5.1378    2.0202 H       1  UNL1        0.0660
     58 H           3.5829    6.3998    1.4693 H       1  UNL1        0.0660
     59 H           4.7622    5.7178    0.3752 H       1  UNL1        0.0660
@<TRIPOS>UNITY_ATOM_ATTR
6 1
charge 1
@<TRIPOS>BOND
     1     1    24   ar
     2     1    27   ar
     3     2    16    1
     4     3    12    1
     5     3    29    1
     6     4    25    1
     7     4    28    1
     8     5    17   ar
     9     5    21   ar
    10     6    18    1
    11     6    22    1
    12     6    30    1
    13     6    31    1
    14     7     2    1
    15     7     9    1
    16     7    10    1
    17     7    11    1
    18     8     9    1
    19     8    14    1
    20     8    15    1
    21     8    17    1
    22     9    32    1
    23     9    33    1
    24    10    12    1
    25    10    34    1
    26    10    35    1
    27    11    13    1
    28    11    36    1
    29    11    37    1
    30    12    13    1
    31    12    38    1
    32    13    39    1
    33    13    40    1
    34    14    16    1
    35    14    41    1
    36    14    42    1
    37    15    18    1
    38    15    43    1
    39    15    44    1
    40    16    45    1
    41    16    46    1
    42    17    19   ar
    43    18    47    1
    44    18    48    1
    45    19    20   ar
    46    19    49    1
    47    20    23   ar
    48    20    50    1
    49    21    23   ar
    50    21    51    1
    51    22    24    1
    52    22    52    1
    53    22    53    1
    54    23    54    1
    55    24    25   ar
    56    25    26   ar
    57    26    27   ar
    58    26    55    1
    59    27    56    1
    60    28    57    1
    61    28    58    1
    62    28    59    1
@<TRIPOS>MOLECULE
154925832
 59 62 0 0 0
SMALL
GASTEIGER

@<TRIPOS>ATOM
      1 S           2.3284    4.7477   -2.5064 S.2     1  UNL1       -0.0926
      2 O          -3.4780   -1.7041   -1.1056 O.3     1  UNL1       -0.3732
      3 O          -6.8095   -1.7965    1.6320 O.3     1  UNL1       -0.3917
      4 O           0.8590    4.1696    1.0217 O.3     1  UNL1       -0.4941
      5 N          -1.5809    1.8341   -1.3295 N.ar    1  UNL1       -0.2593
      6 N           1.0858    1.6705   -0.3064 N.4     1  UNL1        0.2308
      7 C          -3.5817   -1.0970    0.1878 C.3     1  UNL1        0.0728
      8 C          -1.1415   -0.2325   -0.0614 C.3     1  UNL1        0.0224
      9 C          -2.1927   -0.9539    0.8332 C.3     1  UNL1       -0.0123
     10 C          -4.4808   -2.0092    1.0377 C.3     1  UNL1        0.0024
     11 C          -4.4284    0.1820    0.1498 C.3     1  UNL1       -0.0213
     12 C          -5.9002   -1.7207    0.5465 C.3     1  UNL1        0.0580
     13 C          -5.8625   -0.3127   -0.0491 C.3     1  UNL1       -0.0242
     14 C          -1.1858   -0.9535   -1.4364 C.3     1  UNL1       -0.0181
     15 C           0.2670   -0.4668    0.5390 C.3     1  UNL1       -0.0013
     16 C          -2.5969   -1.0429   -2.0073 C.3     1  UNL1        0.0492
     17 C          -1.3476    1.2945   -0.1120 C.ar    1  UNL1        0.0478
     18 C           1.3342    0.2337   -0.2898 C.3     1  UNL1       -0.0325
     19 C          -1.2863    2.0274    1.0623 C.ar    1  UNL1       -0.0398
     20 C          -1.4765    3.4025    0.9819 C.ar    1  UNL1       -0.0586
     21 C          -1.7610    3.1734   -1.3683 C.ar    1  UNL1        0.0279
     22 C           2.0858    2.3615   -1.1080 C.3     1  UNL1        0.0021
     23 C          -1.7188    3.9942   -0.2528 C.ar    1  UNL1       -0.0436
     24 C           1.8593    3.8498   -1.1258 C.ar    1  UNL1        0.0756
     25 C           1.3038    4.6510   -0.1524 C.ar    1  UNL1        0.1353
     26 C           1.2626    6.0196   -0.5453 C.ar    1  UNL1       -0.0124
     27 C           1.7883    6.2128   -1.8040 C.ar    1  UNL1       -0.0203
     28 C           0.9264    5.0346    2.1641 C.3     1  UNL1        0.0788
     29 H          -6.8125   -2.6984    1.9889 H       1  UNL1        0.2098
     30 H           1.1196    2.0263    0.6490 H       1  UNL1        0.2017
     31 H           0.1670    1.8376   -0.7166 H       1  UNL1        0.2017
     32 H          -1.8254   -1.9333    1.0585 H       1  UNL1        0.0302
     33 H          -2.3210   -0.3471    1.7051 H       1  UNL1        0.0302
     34 H          -4.3853   -1.7715    2.0766 H       1  UNL1        0.0318
     35 H          -4.2197   -3.0421    0.9381 H       1  UNL1        0.0318
     36 H          -4.1288    0.8097   -0.6633 H       1  UNL1        0.0294
     37 H          -4.3200    0.7679    1.0386 H       1  UNL1        0.0294
     38 H          -6.2264   -2.4315   -0.1837 H       1  UNL1        0.0594
     39 H          -6.1063   -0.3414   -1.0906 H       1  UNL1        0.0291
     40 H          -6.5727    0.3346    0.4216 H       1  UNL1        0.0291
     41 H          -0.8016   -1.9448   -1.3159 H       1  UNL1        0.0296
     42 H          -0.5952   -0.3814   -2.1211 H       1  UNL1        0.0296
     43 H           0.4702   -1.5172    0.5562 H       1  UNL1        0.0326
     44 H           0.2867   -0.0660    1.5309 H       1  UNL1        0.0326
     45 H          -2.9625   -0.0540   -2.1899 H       1  UNL1        0.0560
     46 H          -2.5587   -1.6058   -2.9164 H       1  UNL1        0.0560
     47 H           2.2966    0.0449    0.1383 H       1  UNL1        0.0814
     48 H           1.3043   -0.1406   -1.2917 H       1  UNL1        0.0814
     49 H          -1.1050    1.5672    1.9681 H       1  UNL1        0.0636
     50 H          -1.4382    3.9816    1.8353 H       1  UNL1        0.0619
     51 H          -1.9410    3.6113   -2.2852 H       1  UNL1        0.0829
     52 H           2.0404    1.9925   -2.1114 H       1  UNL1        0.0873
     53 H           3.0457    2.1769   -0.6726 H       1  UNL1        0.0873
     54 H          -1.8627    5.0127   -0.3358 H       1  UNL1        0.0633
     55 H           0.8836    6.7774    0.0437 H       1  UNL1        0.0659
     56 H           1.8493    7.1322   -2.2687 H       1  UNL1        0.0694
     57 H           0.5416    4.5233    3.0217 H       1  UNL1        0.0660
     58 H           0.3436    5.9130    1.9812 H       1  UNL1        0.0660
     59 H           1.9444    5.3125    2.3415 H       1  UNL1        0.0660
@<TRIPOS>UNITY_ATOM_ATTR
6 1
charge 1
@<TRIPOS>BOND
     1     1    24   ar
     2     1    27   ar
     3     2    16    1
     4     3    12    1
     5     3    29    1
     6     4    25    1
     7     4    28    1
     8     5    17   ar
     9     5    21   ar
    10     6    18    1
    11     6    22    1
    12     6    30    1
    13     6    31    1
    14     7     2    1
    15     7     9    1
    16     7    10    1
    17     7    11    1
    18     8     9    1
    19     8    14    1
    20     8    15    1
    21     8    17    1
    22     9    32    1
    23     9    33    1
    24    10    12    1
    25    10    34    1
    26    10    35    1
    27    11    13    1
    28    11    36    1
    29    11    37    1
    30    12    13    1
    31    12    38    1
    32    13    39    1
    33    13    40    1
    34    14    16    1
    35    14    41    1
    36    14    42    1
    37    15    18    1
    38    15    43    1
    39    15    44    1
    40    16    45    1
    41    16    46    1
    42    17    19   ar
    43    18    47    1
    44    18    48    1
    45    19    20   ar
    46    19    49    1
    47    20    23   ar
    48    20    50    1
    49    21    23   ar
    50    21    51    1
    51    22    24    1
    52    22    52    1
    53    22    53    1
    54    23    54    1
    55    24    25   ar
    56    25    26   ar
    57    26    27   ar
    58    26    55    1
    59    27    56    1
    60    28    57    1
    61    28    58    1
    62    28    59    1
@<TRIPOS>MOLECULE
154925832
 59 62 0 0 0
SMALL
GASTEIGER

@<TRIPOS>ATOM
      1 S           5.4480    0.9705    1.5468 S.2     1  UNL1       -0.0926
      2 O          -3.4780   -1.7041   -1.1056 O.3     1  UNL1       -0.3732
      3 O          -6.8095   -1.7965    1.6320 O.3     1  UNL1       -0.3917
      4 O           3.5016   -1.1803    4.1014 O.3     1  UNL1       -0.4941
      5 N          -1.8975    1.8680    0.9819 N.ar    1  UNL1       -0.2593
      6 N           2.6511   -0.0149    0.2847 N.4     1  UNL1        0.2308
      7 C          -3.5817   -1.0970    0.1878 C.3     1  UNL1        0.0728
      8 C          -1.1415   -0.2325   -0.0614 C.3     1  UNL1        0.0224
      9 C          -2.1927   -0.9539    0.8332 C.3     1  UNL1       -0.0123
     10 C          -4.4808   -2.0092    1.0377 C.3     1  UNL1        0.0024
     11 C          -4.4284    0.1820    0.1498 C.3     1  UNL1       -0.0213
     12 C          -5.9002   -1.7207    0.5465 C.3     1  UNL1        0.0580
     13 C          -5.8625   -0.3127   -0.0491 C.3     1  UNL1       -0.0242
     14 C          -1.1858   -0.9535   -1.4364 C.3     1  UNL1       -0.0181
     15 C           0.2670   -0.4668    0.5390 C.3     1  UNL1       -0.0013
     16 C          -2.5969   -1.0429   -2.0073 C.3     1  UNL1        0.0492
     17 C          -1.3476    1.2945   -0.1120 C.ar    1  UNL1        0.0478
     18 C           1.3342    0.2337   -0.2898 C.3     1  UNL1       -0.0325
     19 C          -0.9698    1.9936   -1.2471 C.ar    1  UNL1       -0.0398
     20 C          -1.1692    3.3697   -1.2603 C.ar    1  UNL1       -0.0586
     21 C          -2.0760    3.2071    0.9324 C.ar    1  UNL1        0.0279
     22 C           2.7195    0.4689    1.6564 C.3     1  UNL1        0.0021
     23 C          -1.7324    3.9956   -0.1539 C.ar    1  UNL1       -0.0436
     24 C           4.0770    0.2381    2.2652 C.ar    1  UNL1        0.0756
     25 C           4.4117   -0.5121    3.3711 C.ar    1  UNL1        0.1353
     26 C           5.8119   -0.4851    3.6321 C.ar    1  UNL1       -0.0124
     27 C           6.4943    0.2847    2.7158 C.ar    1  UNL1       -0.0203
     28 C           2.1719   -0.6450    4.1595 C.3     1  UNL1        0.0788
     29 H          -6.8125   -2.6984    1.9889 H       1  UNL1        0.2098
     30 H           3.3557    0.4660   -0.2745 H       1  UNL1        0.2017
     31 H           2.8220   -1.0206    0.2850 H       1  UNL1        0.2017
     32 H          -1.8254   -1.9333    1.0585 H       1  UNL1        0.0302
     33 H          -2.3210   -0.3471    1.7051 H       1  UNL1        0.0302
     34 H          -4.3853   -1.7715    2.0766 H       1  UNL1        0.0318
     35 H          -4.2197   -3.0421    0.9381 H       1  UNL1        0.0318
     36 H          -4.1288    0.8097   -0.6633 H       1  UNL1        0.0294
     37 H          -4.3200    0.7679    1.0386 H       1  UNL1        0.0294
     38 H          -6.2264   -2.4315   -0.1837 H       1  UNL1        0.0594
     39 H          -6.1063   -0.3414   -1.0906 H       1  UNL1        0.0291
     40 H          -6.5727    0.3346    0.4216 H       1  UNL1        0.0291
     41 H          -0.8016   -1.9448   -1.3159 H       1  UNL1        0.0296
     42 H          -0.5952   -0.3814   -2.1211 H       1  UNL1        0.0296
     43 H           0.4702   -1.5172    0.5562 H       1  UNL1        0.0326
     44 H           0.2867   -0.0660    1.5309 H       1  UNL1        0.0326
     45 H          -2.9625   -0.0540   -2.1899 H       1  UNL1        0.0560
     46 H          -2.5587   -1.6058   -2.9164 H       1  UNL1        0.0560
     47 H           1.3078   -0.1407   -1.2918 H       1  UNL1        0.0814
     48 H           1.1438    1.2866   -0.2920 H       1  UNL1        0.0814
     49 H          -0.5535    1.5083   -2.0572 H       1  UNL1        0.0636
     50 H          -0.9002    3.9242   -2.0881 H       1  UNL1        0.0619
     51 H          -2.4939    3.6706    1.7543 H       1  UNL1        0.0829
     52 H           1.9858   -0.0451    2.2416 H       1  UNL1        0.0873
     53 H           2.5350    1.5229    1.6462 H       1  UNL1        0.0873
     54 H          -1.8897    5.0155   -0.1421 H       1  UNL1        0.0633
     55 H           6.2621   -0.9836    4.4155 H       1  UNL1        0.0659
     56 H           7.5158    0.4307    2.7321 H       1  UNL1        0.0694
     57 H           1.5603   -1.2749    4.7711 H       1  UNL1        0.0660
     58 H           1.7622   -0.5999    3.1721 H       1  UNL1        0.0660
     59 H           2.2015    0.3391    4.5787 H       1  UNL1        0.0660
@<TRIPOS>UNITY_ATOM_ATTR
6 1
charge 1
@<TRIPOS>BOND
     1     1    24   ar
     2     1    27   ar
     3     2    16    1
     4     3    12    1
     5     3    29    1
     6     4    25    1
     7     4    28    1
     8     5    17   ar
     9     5    21   ar
    10     6    18    1
    11     6    22    1
    12     6    30    1
    13     6    31    1
    14     7     2    1
    15     7     9    1
    16     7    10    1
    17     7    11    1
    18     8     9    1
    19     8    14    1
    20     8    15    1
    21     8    17    1
    22     9    32    1
    23     9    33    1
    24    10    12    1
    25    10    34    1
    26    10    35    1
    27    11    13    1
    28    11    36    1
    29    11    37    1
    30    12    13    1
    31    12    38    1
    32    13    39    1
    33    13    40    1
    34    14    16    1
    35    14    41    1
    36    14    42    1
    37    15    18    1
    38    15    43    1
    39    15    44    1
    40    16    45    1
    41    16    46    1
    42    17    19   ar
    43    18    47    1
    44    18    48    1
    45    19    20   ar
    46    19    49    1
    47    20    23   ar
    48    20    50    1
    49    21    23   ar
    50    21    51    1
    51    22    24    1
    52    22    52    1
    53    22    53    1
    54    23    54    1
    55    24    25   ar
    56    25    26   ar
    57    26    27   ar
    58    26    55    1
    59    27    56    1
    60    28    57    1
    61    28    58    1
    62    28    59    1
@<TRIPOS>MOLECULE
154925832
 59 62 0 0 0
SMALL
GASTEIGER

@<TRIPOS>ATOM
      1 S           1.2479   -1.8258    2.1827 S.2     1  UNL1       -0.0926
      2 O          -3.4780   -1.7041   -1.1056 O.3     1  UNL1       -0.3732
      3 O          -6.8095   -1.7965    1.6320 O.3     1  UNL1       -0.3917
      4 O           1.2877    1.5049    4.1436 O.3     1  UNL1       -0.4941
      5 N          -0.2395    2.0499   -0.2834 N.ar    1  UNL1       -0.2593
      6 N           2.6511   -0.0149    0.2847 N.4     1  UNL1        0.2308
      7 C          -3.5817   -1.0970    0.1878 C.3     1  UNL1        0.0728
      8 C          -1.1415   -0.2325   -0.0614 C.3     1  UNL1        0.0224
      9 C          -2.1927   -0.9539    0.8332 C.3     1  UNL1       -0.0123
     10 C          -4.4808   -2.0092    1.0377 C.3     1  UNL1        0.0024
     11 C          -4.4284    0.1820    0.1498 C.3     1  UNL1       -0.0213
     12 C          -5.9002   -1.7207    0.5465 C.3     1  UNL1        0.0580
     13 C          -5.8625   -0.3127   -0.0491 C.3     1  UNL1       -0.0242
     14 C          -1.1858   -0.9535   -1.4364 C.3     1  UNL1       -0.0181
     15 C           0.2670   -0.4668    0.5390 C.3     1  UNL1       -0.0013
     16 C          -2.5969   -1.0429   -2.0073 C.3     1  UNL1        0.0492
     17 C          -1.3476    1.2945   -0.1120 C.ar    1  UNL1        0.0478
     18 C           1.3342    0.2337   -0.2898 C.3     1  UNL1       -0.0325
     19 C          -2.6265    1.8119    0.0171 C.ar    1  UNL1       -0.0398
     20 C          -2.7778    3.1932   -0.0330 C.ar    1  UNL1       -0.0586
     21 C          -0.4257    3.3881   -0.3272 C.ar    1  UNL1        0.0279
     22 C           2.7195    0.4689    1.6564 C.3     1  UNL1        0.0021
     23 C          -1.6614    4.0034   -0.2080 C.ar    1  UNL1       -0.0436
     24 C           1.7167   -0.2190    2.5441 C.ar    1  UNL1        0.0756
     25 C           1.0787    0.2660    3.6646 C.ar    1  UNL1        0.1353
     26 C           0.1936   -0.6942    4.2339 C.ar    1  UNL1       -0.0124
     27 C           0.1885   -1.8766    3.5270 C.ar    1  UNL1       -0.0203
     28 C           1.1553    1.7026    5.5583 C.3     1  UNL1        0.0788
     29 H          -6.8125   -2.6984    1.9889 H       1  UNL1        0.2098
     30 H           3.3557    0.4660   -0.2745 H       1  UNL1        0.2017
     31 H           2.8220   -1.0206    0.2850 H       1  UNL1        0.2017
     32 H          -1.8254   -1.9333    1.0585 H       1  UNL1        0.0302
     33 H          -2.3210   -0.3471    1.7051 H       1  UNL1        0.0302
     34 H          -4.3853   -1.7715    2.0766 H       1  UNL1        0.0318
     35 H          -4.2197   -3.0421    0.9381 H       1  UNL1        0.0318
     36 H          -4.1288    0.8097   -0.6633 H       1  UNL1        0.0294
     37 H          -4.3200    0.7679    1.0386 H       1  UNL1        0.0294
     38 H          -6.2264   -2.4315   -0.1837 H       1  UNL1        0.0594
     39 H          -6.1063   -0.3414   -1.0906 H       1  UNL1        0.0291
     40 H          -6.5727    0.3346    0.4216 H       1  UNL1        0.0291
     41 H          -0.8016   -1.9448   -1.3159 H       1  UNL1        0.0296
     42 H          -0.5952   -0.3814   -2.1211 H       1  UNL1        0.0296
     43 H           0.4702   -1.5172    0.5562 H       1  UNL1        0.0326
     44 H           0.2867   -0.0660    1.5309 H       1  UNL1        0.0326
     45 H          -2.9625   -0.0540   -2.1899 H       1  UNL1        0.0560
     46 H          -2.5587   -1.6058   -2.9164 H       1  UNL1        0.0560
     47 H           1.3078   -0.1407   -1.2918 H       1  UNL1        0.0814
     48 H           1.1438    1.2866   -0.2920 H       1  UNL1        0.0814
     49 H          -3.4411    1.1916    0.1463 H       1  UNL1        0.0636
     50 H          -3.7150    3.6155    0.0593 H       1  UNL1        0.0619
     51 H           0.4036    3.9884   -0.4574 H       1  UNL1        0.0829
     52 H           2.5230    1.5207    1.6626 H       1  UNL1        0.0873
     53 H           3.6978    0.2574    2.0346 H       1  UNL1        0.0873
     54 H          -1.7504    5.0308   -0.2479 H       1  UNL1        0.0633
     55 H          -0.3768   -0.5240    5.0769 H       1  UNL1        0.0659
     56 H          -0.3860   -2.6963    3.7780 H       1  UNL1        0.0694
     57 H           1.3482    2.7282    5.7946 H       1  UNL1        0.0660
     58 H           1.8571    1.0799    6.0726 H       1  UNL1        0.0660
     59 H           0.1618    1.4471    5.8627 H       1  UNL1        0.0660
@<TRIPOS>UNITY_ATOM_ATTR
6 1
charge 1
@<TRIPOS>BOND
     1     1    24   ar
     2     1    27   ar
     3     2    16    1
     4     3    12    1
     5     3    29    1
     6     4    25    1
     7     4    28    1
     8     5    17   ar
     9     5    21   ar
    10     6    18    1
    11     6    22    1
    12     6    30    1
    13     6    31    1
    14     7     2    1
    15     7     9    1
    16     7    10    1
    17     7    11    1
    18     8     9    1
    19     8    14    1
    20     8    15    1
    21     8    17    1
    22     9    32    1
    23     9    33    1
    24    10    12    1
    25    10    34    1
    26    10    35    1
    27    11    13    1
    28    11    36    1
    29    11    37    1
    30    12    13    1
    31    12    38    1
    32    13    39    1
    33    13    40    1
    34    14    16    1
    35    14    41    1
    36    14    42    1
    37    15    18    1
    38    15    43    1
    39    15    44    1
    40    16    45    1
    41    16    46    1
    42    17    19   ar
    43    18    47    1
    44    18    48    1
    45    19    20   ar
    46    19    49    1
    47    20    23   ar
    48    20    50    1
    49    21    23   ar
    50    21    51    1
    51    22    24    1
    52    22    52    1
    53    22    53    1
    54    23    54    1
    55    24    25   ar
    56    25    26   ar
    57    26    27   ar
    58    26    55    1
    59    27    56    1
    60    28    57    1
    61    28    58    1
    62    28    59    1
@<TRIPOS>MOLECULE
154925832
 59 62 0 0 0
SMALL
GASTEIGER

@<TRIPOS>ATOM
      1 S           1.8095   -1.9168    2.7466 S.2     1  UNL1       -0.0926
      2 O          -3.4780   -1.7041   -1.1056 O.3     1  UNL1       -0.3732
      3 O          -6.8095   -1.7965    1.6320 O.3     1  UNL1       -0.3917
      4 O           0.4056    1.6480    3.2581 O.3     1  UNL1       -0.4941
      5 N          -0.2395    2.0499   -0.2834 N.ar    1  UNL1       -0.2593
      6 N           2.6511   -0.0149    0.2847 N.4     1  UNL1        0.2308
      7 C          -3.5817   -1.0970    0.1878 C.3     1  UNL1        0.0728
      8 C          -1.1415   -0.2325   -0.0614 C.3     1  UNL1        0.0224
      9 C          -2.1927   -0.9539    0.8332 C.3     1  UNL1       -0.0123
     10 C          -4.4808   -2.0092    1.0377 C.3     1  UNL1        0.0024
     11 C          -4.4284    0.1820    0.1498 C.3     1  UNL1       -0.0213
     12 C          -5.9002   -1.7207    0.5465 C.3     1  UNL1        0.0580
     13 C          -5.8625   -0.3127   -0.0491 C.3     1  UNL1       -0.0242
     14 C          -1.1858   -0.9535   -1.4364 C.3     1  UNL1       -0.0181
     15 C           0.2670   -0.4668    0.5390 C.3     1  UNL1       -0.0013
     16 C          -2.5969   -1.0429   -2.0073 C.3     1  UNL1        0.0492
     17 C          -1.3476    1.2945   -0.1120 C.ar    1  UNL1        0.0478
     18 C           1.3342    0.2337   -0.2898 C.3     1  UNL1       -0.0325
     19 C          -2.6265    1.8119    0.0171 C.ar    1  UNL1       -0.0398
     20 C          -2.7778    3.1932   -0.0330 C.ar    1  UNL1       -0.0586
     21 C          -0.4257    3.3881   -0.3272 C.ar    1  UNL1        0.0279
     22 C           2.7195    0.4689    1.6564 C.3     1  UNL1        0.0021
     23 C          -1.6614    4.0034   -0.2080 C.ar    1  UNL1       -0.0436
     24 C           1.7167   -0.2190    2.5441 C.ar    1  UNL1        0.0756
     25 C           0.6760    0.3308    3.2599 C.ar    1  UNL1        0.1353
     26 C          -0.0546   -0.6547    3.9842 C.ar    1  UNL1       -0.0124
     27 C           0.4553   -1.9203    3.7944 C.ar    1  UNL1       -0.0203
     28 C           1.2484    2.4993    2.4689 C.3     1  UNL1        0.0788
     29 H          -6.8125   -2.6984    1.9889 H       1  UNL1        0.2098
     30 H           3.3557    0.4660   -0.2745 H       1  UNL1        0.2017
     31 H           2.8220   -1.0206    0.2850 H       1  UNL1        0.2017
     32 H          -1.8254   -1.9333    1.0585 H       1  UNL1        0.0302
     33 H          -2.3210   -0.3471    1.7051 H       1  UNL1        0.0302
     34 H          -4.3853   -1.7715    2.0766 H       1  UNL1        0.0318
     35 H          -4.2197   -3.0421    0.9381 H       1  UNL1        0.0318
     36 H          -4.1288    0.8097   -0.6633 H       1  UNL1        0.0294
     37 H          -4.3200    0.7679    1.0386 H       1  UNL1        0.0294
     38 H          -6.2264   -2.4315   -0.1837 H       1  UNL1        0.0594
     39 H          -6.1063   -0.3414   -1.0906 H       1  UNL1        0.0291
     40 H          -6.5727    0.3346    0.4216 H       1  UNL1        0.0291
     41 H          -0.8016   -1.9448   -1.3159 H       1  UNL1        0.0296
     42 H          -0.5952   -0.3814   -2.1211 H       1  UNL1        0.0296
     43 H           0.4702   -1.5172    0.5562 H       1  UNL1        0.0326
     44 H           0.2867   -0.0660    1.5309 H       1  UNL1        0.0326
     45 H          -2.9625   -0.0540   -2.1899 H       1  UNL1        0.0560
     46 H          -2.5587   -1.6058   -2.9164 H       1  UNL1        0.0560
     47 H           1.3078   -0.1407   -1.2918 H       1  UNL1        0.0814
     48 H           1.1438    1.2866   -0.2920 H       1  UNL1        0.0814
     49 H          -3.4411    1.1916    0.1463 H       1  UNL1        0.0636
     50 H          -3.7150    3.6155    0.0593 H       1  UNL1        0.0619
     51 H           0.4036    3.9884   -0.4574 H       1  UNL1        0.0829
     52 H           2.5230    1.5207    1.6626 H       1  UNL1        0.0873
     53 H           3.6978    0.2574    2.0346 H       1  UNL1        0.0873
     54 H          -1.7504    5.0308   -0.2479 H       1  UNL1        0.0633
     55 H          -0.8700   -0.4450    4.5809 H       1  UNL1        0.0659
     56 H           0.0669   -2.7703    4.2322 H       1  UNL1        0.0694
     57 H           0.9185    3.5130    2.5618 H       1  UNL1        0.0660
     58 H           1.1969    2.2001    1.4429 H       1  UNL1        0.0660
     59 H           2.2583    2.4199    2.8133 H       1  UNL1        0.0660
@<TRIPOS>UNITY_ATOM_ATTR
6 1
charge 1
@<TRIPOS>BOND
     1     1    24   ar
     2     1    27   ar
     3     2    16    1
     4     3    12    1
     5     3    29    1
     6     4    25    1
     7     4    28    1
     8     5    17   ar
     9     5    21   ar
    10     6    18    1
    11     6    22    1
    12     6    30    1
    13     6    31    1
    14     7     2    1
    15     7     9    1
    16     7    10    1
    17     7    11    1
    18     8     9    1
    19     8    14    1
    20     8    15    1
    21     8    17    1
    22     9    32    1
    23     9    33    1
    24    10    12    1
    25    10    34    1
    26    10    35    1
    27    11    13    1
    28    11    36    1
    29    11    37    1
    30    12    13    1
    31    12    38    1
    32    13    39    1
    33    13    40    1
    34    14    16    1
    35    14    41    1
    36    14    42    1
    37    15    18    1
    38    15    43    1
    39    15    44    1
    40    16    45    1
    41    16    46    1
    42    17    19   ar
    43    18    47    1
    44    18    48    1
    45    19    20   ar
    46    19    49    1
    47    20    23   ar
    48    20    50    1
    49    21    23   ar
    50    21    51    1
    51    22    24    1
    52    22    52    1
    53    22    53    1
    54    23    54    1
    55    24    25   ar
    56    25    26   ar
    57    26    27   ar
    58    26    55    1
    59    27    56    1
    60    28    57    1
    61    28    58    1
    62    28    59    1
@<TRIPOS>MOLECULE
154925832
 59 62 0 0 0
SMALL
GASTEIGER

@<TRIPOS>ATOM
      1 S           5.5242   -2.3886   -0.0036 S.2     1  UNL1       -0.0926
      2 O          -3.4780   -1.7041   -1.1056 O.3     1  UNL1       -0.3732
      3 O          -6.8095   -1.7965    1.6320 O.3     1  UNL1       -0.3917
      4 O           4.0228   -0.7314    3.1492 O.3     1  UNL1       -0.4941
      5 N          -1.2616    1.9565    1.0637 N.ar    1  UNL1       -0.2593
      6 N           1.9227   -2.1473    1.1614 N.4     1  UNL1        0.2308
      7 C          -3.5817   -1.0970    0.1878 C.3     1  UNL1        0.0728
      8 C          -1.1415   -0.2325   -0.0614 C.3     1  UNL1        0.0224
      9 C          -2.1927   -0.9539    0.8332 C.3     1  UNL1       -0.0123
     10 C          -4.4808   -2.0092    1.0377 C.3     1  UNL1        0.0024
     11 C          -4.4284    0.1820    0.1498 C.3     1  UNL1       -0.0213
     12 C          -5.9002   -1.7207    0.5465 C.3     1  UNL1        0.0580
     13 C          -5.8625   -0.3127   -0.0491 C.3     1  UNL1       -0.0242
     14 C          -1.1858   -0.9535   -1.4364 C.3     1  UNL1       -0.0181
     15 C           0.2670   -0.4668    0.5390 C.3     1  UNL1       -0.0013
     16 C          -2.5969   -1.0429   -2.0073 C.3     1  UNL1        0.0492
     17 C          -1.3476    1.2945   -0.1120 C.ar    1  UNL1        0.0478
     18 C           0.6009   -1.9512    0.5778 C.3     1  UNL1       -0.0325
     19 C          -1.6052    1.9052   -1.3288 C.ar    1  UNL1       -0.0398
     20 C          -1.7861    3.2838   -1.3397 C.ar    1  UNL1       -0.0586
     21 C          -1.4430    3.2952    1.0137 C.ar    1  UNL1        0.0279
     22 C           2.9408   -1.4501    0.3884 C.3     1  UNL1        0.0021
     23 C          -1.7052    3.9994   -0.1504 C.ar    1  UNL1       -0.0436
     24 C           4.3176   -1.6525    0.9631 C.ar    1  UNL1        0.0756
     25 C           4.7885   -1.3219    2.2148 C.ar    1  UNL1        0.1353
     26 C           6.1578   -1.6773    2.3822 C.ar    1  UNL1       -0.0124
     27 C           6.6816   -2.2662    1.2524 C.ar    1  UNL1       -0.0203
     28 C           4.6700    0.1416    4.0856 C.3     1  UNL1        0.0788
     29 H          -6.8125   -2.6984    1.9889 H       1  UNL1        0.2098
     30 H           2.1376   -3.1444    1.1741 H       1  UNL1        0.2017
     31 H           1.9192   -1.7714    2.1097 H       1  UNL1        0.2017
     32 H          -1.8254   -1.9333    1.0585 H       1  UNL1        0.0302
     33 H          -2.3210   -0.3471    1.7051 H       1  UNL1        0.0302
     34 H          -4.3853   -1.7715    2.0766 H       1  UNL1        0.0318
     35 H          -4.2197   -3.0421    0.9381 H       1  UNL1        0.0318
     36 H          -4.1288    0.8097   -0.6633 H       1  UNL1        0.0294
     37 H          -4.3200    0.7679    1.0386 H       1  UNL1        0.0294
     38 H          -6.2264   -2.4315   -0.1837 H       1  UNL1        0.0594
     39 H          -6.1063   -0.3414   -1.0906 H       1  UNL1        0.0291
     40 H          -6.5727    0.3346    0.4216 H       1  UNL1        0.0291
     41 H          -0.8016   -1.9448   -1.3159 H       1  UNL1        0.0296
     42 H          -0.5952   -0.3814   -2.1211 H       1  UNL1        0.0296
     43 H           0.2928   -0.0758    1.5346 H       1  UNL1        0.0326
     44 H           0.9878    0.0297   -0.0764 H       1  UNL1        0.0326
     45 H          -2.9625   -0.0540   -2.1899 H       1  UNL1        0.0560
     46 H          -2.5587   -1.6058   -2.9164 H       1  UNL1        0.0560
     47 H          -0.1281   -2.4635    1.1702 H       1  UNL1        0.0814
     48 H           0.5947   -2.3399   -0.4191 H       1  UNL1        0.0814
     49 H          -1.6610    1.3541   -2.1996 H       1  UNL1        0.0636
     50 H          -1.9796    3.7739   -2.2271 H       1  UNL1        0.0619
     51 H          -1.3825    3.8253    1.8971 H       1  UNL1        0.0829
     52 H           2.7172   -0.4037    0.3858 H       1  UNL1        0.0873
     53 H           2.9338   -1.8481   -0.6049 H       1  UNL1        0.0873
     54 H          -1.8364    5.0229   -0.1351 H       1  UNL1        0.0633
     55 H           6.6944   -1.5129    3.2483 H       1  UNL1        0.0659
     56 H           7.6565   -2.5948    1.1723 H       1  UNL1        0.0694
     57 H           3.9440    0.5372    4.7649 H       1  UNL1        0.0660
     58 H           5.1399    0.9452    3.5580 H       1  UNL1        0.0660
     59 H           5.4088   -0.4063    4.6324 H       1  UNL1        0.0660
@<TRIPOS>UNITY_ATOM_ATTR
6 1
charge 1
@<TRIPOS>BOND
     1     1    24   ar
     2     1    27   ar
     3     2    16    1
     4     3    12    1
     5     3    29    1
     6     4    25    1
     7     4    28    1
     8     5    17   ar
     9     5    21   ar
    10     6    18    1
    11     6    22    1
    12     6    30    1
    13     6    31    1
    14     7     2    1
    15     7     9    1
    16     7    10    1
    17     7    11    1
    18     8     9    1
    19     8    14    1
    20     8    15    1
    21     8    17    1
    22     9    32    1
    23     9    33    1
    24    10    12    1
    25    10    34    1
    26    10    35    1
    27    11    13    1
    28    11    36    1
    29    11    37    1
    30    12    13    1
    31    12    38    1
    32    13    39    1
    33    13    40    1
    34    14    16    1
    35    14    41    1
    36    14    42    1
    37    15    18    1
    38    15    43    1
    39    15    44    1
    40    16    45    1
    41    16    46    1
    42    17    19   ar
    43    18    47    1
    44    18    48    1
    45    19    20   ar
    46    19    49    1
    47    20    23   ar
    48    20    50    1
    49    21    23   ar
    50    21    51    1
    51    22    24    1
    52    22    52    1
    53    22    53    1
    54    23    54    1
    55    24    25   ar
    56    25    26   ar
    57    26    27   ar
    58    26    55    1
    59    27    56    1
    60    28    57    1
    61    28    58    1
    62    28    59    1
@<TRIPOS>MOLECULE
154925832
 59 62 0 0 0
SMALL
GASTEIGER

@<TRIPOS>ATOM
      1 S           3.4506    3.0344    0.8869 S.2     1  UNL1       -0.0926
      2 O          -3.4780   -1.7041   -1.1056 O.3     1  UNL1       -0.3732
      3 O          -6.8095   -1.7965    1.6320 O.3     1  UNL1       -0.3917
      4 O           0.5415    1.9550    3.1918 O.3     1  UNL1       -0.4941
      5 N          -1.8975    1.8680    0.9819 N.ar    1  UNL1       -0.2593
      6 N           2.6511   -0.0149    0.2847 N.4     1  UNL1        0.2308
      7 C          -3.5817   -1.0970    0.1878 C.3     1  UNL1        0.0728
      8 C          -1.1415   -0.2325   -0.0614 C.3     1  UNL1        0.0224
      9 C          -2.1927   -0.9539    0.8332 C.3     1  UNL1       -0.0123
     10 C          -4.4808   -2.0092    1.0377 C.3     1  UNL1        0.0024
     11 C          -4.4284    0.1820    0.1498 C.3     1  UNL1       -0.0213
     12 C          -5.9002   -1.7207    0.5465 C.3     1  UNL1        0.0580
     13 C          -5.8625   -0.3127   -0.0491 C.3     1  UNL1       -0.0242
     14 C          -1.1858   -0.9535   -1.4364 C.3     1  UNL1       -0.0181
     15 C           0.2670   -0.4668    0.5390 C.3     1  UNL1       -0.0013
     16 C          -2.5969   -1.0429   -2.0073 C.3     1  UNL1        0.0492
     17 C          -1.3476    1.2945   -0.1120 C.ar    1  UNL1        0.0478
     18 C           1.3342    0.2337   -0.2898 C.3     1  UNL1       -0.0325
     19 C          -0.9698    1.9936   -1.2471 C.ar    1  UNL1       -0.0398
     20 C          -1.1692    3.3697   -1.2603 C.ar    1  UNL1       -0.0586
     21 C          -2.0760    3.2071    0.9324 C.ar    1  UNL1        0.0279
     22 C           2.7195    0.4689    1.6564 C.3     1  UNL1        0.0021
     23 C          -1.7324    3.9956   -0.1539 C.ar    1  UNL1       -0.0436
     24 C           2.4437    1.9464    1.7440 C.ar    1  UNL1        0.0756
     25 C           1.4543    2.6006    2.4447 C.ar    1  UNL1        0.1353
     26 C           1.5237    4.0133    2.2755 C.ar    1  UNL1       -0.0124
     27 C           2.5635    4.3855    1.4520 C.ar    1  UNL1       -0.0203
     28 C          -0.7561    2.5529    3.3210 C.3     1  UNL1        0.0788
     29 H          -6.8125   -2.6984    1.9889 H       1  UNL1        0.2098
     30 H           3.3557    0.4660   -0.2745 H       1  UNL1        0.2017
     31 H           2.8220   -1.0206    0.2850 H       1  UNL1        0.2017
     32 H          -1.8254   -1.9333    1.0585 H       1  UNL1        0.0302
     33 H          -2.3210   -0.3471    1.7051 H       1  UNL1        0.0302
     34 H          -4.3853   -1.7715    2.0766 H       1  UNL1        0.0318
     35 H          -4.2197   -3.0421    0.9381 H       1  UNL1        0.0318
     36 H          -4.1288    0.8097   -0.6633 H       1  UNL1        0.0294
     37 H          -4.3200    0.7679    1.0386 H       1  UNL1        0.0294
     38 H          -6.2264   -2.4315   -0.1837 H       1  UNL1        0.0594
     39 H          -6.1063   -0.3414   -1.0906 H       1  UNL1        0.0291
     40 H          -6.5727    0.3346    0.4216 H       1  UNL1        0.0291
     41 H          -0.8016   -1.9448   -1.3159 H       1  UNL1        0.0296
     42 H          -0.5952   -0.3814   -2.1211 H       1  UNL1        0.0296
     43 H           0.4702   -1.5172    0.5562 H       1  UNL1        0.0326
     44 H           0.2867   -0.0660    1.5309 H       1  UNL1        0.0326
     45 H          -2.9625   -0.0540   -2.1899 H       1  UNL1        0.0560
     46 H          -2.5587   -1.6058   -2.9164 H       1  UNL1        0.0560
     47 H           1.3078   -0.1407   -1.2918 H       1  UNL1        0.0814
     48 H           1.1438    1.2866   -0.2920 H       1  UNL1        0.0814
     49 H          -0.5535    1.5083   -2.0572 H       1  UNL1        0.0636
     50 H          -0.9002    3.9242   -2.0881 H       1  UNL1        0.0619
     51 H          -2.4939    3.6706    1.7543 H       1  UNL1        0.0829
     52 H           3.6984    0.2760    2.0430 H       1  UNL1        0.0873
     53 H           1.9723   -0.0427    2.2264 H       1  UNL1        0.0873
     54 H          -1.8897    5.0155   -0.1421 H       1  UNL1        0.0633
     55 H           0.8716    4.6797    2.7178 H       1  UNL1        0.0659
     56 H           2.7820    5.3633    1.2049 H       1  UNL1        0.0694
     57 H          -1.3738    1.9345    3.9383 H       1  UNL1        0.0660
     58 H          -1.2021    2.6496    2.3533 H       1  UNL1        0.0660
     59 H          -0.6602    3.5204    3.7679 H       1  UNL1        0.0660
@<TRIPOS>UNITY_ATOM_ATTR
6 1
charge 1
@<TRIPOS>BOND
     1     1    24   ar
     2     1    27   ar
     3     2    16    1
     4     3    12    1
     5     3    29    1
     6     4    25    1
     7     4    28    1
     8     5    17   ar
     9     5    21   ar
    10     6    18    1
    11     6    22    1
    12     6    30    1
    13     6    31    1
    14     7     2    1
    15     7     9    1
    16     7    10    1
    17     7    11    1
    18     8     9    1
    19     8    14    1
    20     8    15    1
    21     8    17    1
    22     9    32    1
    23     9    33    1
    24    10    12    1
    25    10    34    1
    26    10    35    1
    27    11    13    1
    28    11    36    1
    29    11    37    1
    30    12    13    1
    31    12    38    1
    32    13    39    1
    33    13    40    1
    34    14    16    1
    35    14    41    1
    36    14    42    1
    37    15    18    1
    38    15    43    1
    39    15    44    1
    40    16    45    1
    41    16    46    1
    42    17    19   ar
    43    18    47    1
    44    18    48    1
    45    19    20   ar
    46    19    49    1
    47    20    23   ar
    48    20    50    1
    49    21    23   ar
    50    21    51    1
    51    22    24    1
    52    22    52    1
    53    22    53    1
    54    23    54    1
    55    24    25   ar
    56    25    26   ar
    57    26    27   ar
    58    26    55    1
    59    27    56    1
    60    28    57    1
    61    28    58    1
    62    28    59    1
@<TRIPOS>MOLECULE
154925832
 59 62 0 0 0
SMALL
GASTEIGER

@<TRIPOS>ATOM
      1 S          -0.0021   -3.5825    2.7604 S.2     1  UNL1       -0.0926
      2 O          -3.4780   -1.7041   -1.1056 O.3     1  UNL1       -0.3732
      3 O          -6.8095   -1.7965    1.6320 O.3     1  UNL1       -0.3917
      4 O           1.3927   -1.2328    5.4942 O.3     1  UNL1       -0.4941
      5 N          -0.9732    1.9188   -1.2513 N.ar    1  UNL1       -0.2593
      6 N           1.9227   -2.1473    1.1614 N.4     1  UNL1        0.2308
      7 C          -3.5817   -1.0970    0.1878 C.3     1  UNL1        0.0728
      8 C          -1.1415   -0.2325   -0.0614 C.3     1  UNL1        0.0224
      9 C          -2.1927   -0.9539    0.8332 C.3     1  UNL1       -0.0123
     10 C          -4.4808   -2.0092    1.0377 C.3     1  UNL1        0.0024
     11 C          -4.4284    0.1820    0.1498 C.3     1  UNL1       -0.0213
     12 C          -5.9002   -1.7207    0.5465 C.3     1  UNL1        0.0580
     13 C          -5.8625   -0.3127   -0.0491 C.3     1  UNL1       -0.0242
     14 C          -1.1858   -0.9535   -1.4364 C.3     1  UNL1       -0.0181
     15 C           0.2670   -0.4668    0.5390 C.3     1  UNL1       -0.0013
     16 C          -2.5969   -1.0429   -2.0073 C.3     1  UNL1        0.0492
     17 C          -1.3476    1.2945   -0.1120 C.ar    1  UNL1        0.0478
     18 C           0.6009   -1.9512    0.5778 C.3     1  UNL1       -0.0325
     19 C          -1.8934    1.9429    0.9841 C.ar    1  UNL1       -0.0398
     20 C          -2.0661    3.3204    0.9060 C.ar    1  UNL1       -0.0586
     21 C          -1.1561    3.2576   -1.2905 C.ar    1  UNL1        0.0279
     22 C           1.9686   -1.6410    2.5258 C.3     1  UNL1        0.0021
     23 C          -1.6928    3.9978   -0.2495 C.ar    1  UNL1       -0.0436
     24 C           0.9851   -2.3484    3.4197 C.ar    1  UNL1        0.0756
     25 C           0.7377   -2.1494    4.7602 C.ar    1  UNL1        0.1353
     26 C          -0.2754   -3.0216    5.2524 C.ar    1  UNL1       -0.0124
     27 C          -0.7641   -3.8541    4.2696 C.ar    1  UNL1       -0.0203
     28 C           1.8613   -0.0544    4.8236 C.3     1  UNL1        0.0788
     29 H          -6.8125   -2.6984    1.9889 H       1  UNL1        0.2098
     30 H           2.6135   -1.6517    0.5979 H       1  UNL1        0.2017
     31 H           2.1268   -3.1466    1.1776 H       1  UNL1        0.2017
     32 H          -1.8254   -1.9333    1.0585 H       1  UNL1        0.0302
     33 H          -2.3210   -0.3471    1.7051 H       1  UNL1        0.0302
     34 H          -4.3853   -1.7715    2.0766 H       1  UNL1        0.0318
     35 H          -4.2197   -3.0421    0.9381 H       1  UNL1        0.0318
     36 H          -4.1288    0.8097   -0.6633 H       1  UNL1        0.0294
     37 H          -4.3200    0.7679    1.0386 H       1  UNL1        0.0294
     38 H          -6.2264   -2.4315   -0.1837 H       1  UNL1        0.0594
     39 H          -6.1063   -0.3414   -1.0906 H       1  UNL1        0.0291
     40 H          -6.5727    0.3346    0.4216 H       1  UNL1        0.0291
     41 H          -0.8016   -1.9448   -1.3159 H       1  UNL1        0.0296
     42 H          -0.5952   -0.3814   -2.1211 H       1  UNL1        0.0296
     43 H           0.2928   -0.0758    1.5346 H       1  UNL1        0.0326
     44 H           0.9878    0.0297   -0.0764 H       1  UNL1        0.0326
     45 H          -2.9625   -0.0540   -2.1899 H       1  UNL1        0.0560
     46 H          -2.5587   -1.6058   -2.9164 H       1  UNL1        0.0560
     47 H          -0.1281   -2.4635    1.1702 H       1  UNL1        0.0814
     48 H           0.5947   -2.3399   -0.4191 H       1  UNL1        0.0814
     49 H          -2.1633    1.4199    1.8319 H       1  UNL1        0.0636
     50 H          -2.4697    3.8380    1.7025 H       1  UNL1        0.0619
     51 H          -0.8790    3.7592   -2.1488 H       1  UNL1        0.0829
     52 H           1.7374   -0.5963    2.5153 H       1  UNL1        0.0873
     53 H           2.9517   -1.8141    2.9113 H       1  UNL1        0.0873
     54 H          -1.8117    5.0198   -0.3292 H       1  UNL1        0.0633
     55 H          -0.6047   -3.0289    6.2305 H       1  UNL1        0.0659
     56 H          -1.5023   -4.5583    4.4245 H       1  UNL1        0.0694
     57 H           2.3600    0.5809    5.5256 H       1  UNL1        0.0660
     58 H           1.0303    0.4678    4.3976 H       1  UNL1        0.0660
     59 H           2.5433   -0.3329    4.0476 H       1  UNL1        0.0660
@<TRIPOS>UNITY_ATOM_ATTR
6 1
charge 1
@<TRIPOS>BOND
     1     1    24   ar
     2     1    27   ar
     3     2    16    1
     4     3    12    1
     5     3    29    1
     6     4    25    1
     7     4    28    1
     8     5    17   ar
     9     5    21   ar
    10     6    18    1
    11     6    22    1
    12     6    30    1
    13     6    31    1
    14     7     2    1
    15     7     9    1
    16     7    10    1
    17     7    11    1
    18     8     9    1
    19     8    14    1
    20     8    15    1
    21     8    17    1
    22     9    32    1
    23     9    33    1
    24    10    12    1
    25    10    34    1
    26    10    35    1
    27    11    13    1
    28    11    36    1
    29    11    37    1
    30    12    13    1
    31    12    38    1
    32    13    39    1
    33    13    40    1
    34    14    16    1
    35    14    41    1
    36    14    42    1
    37    15    18    1
    38    15    43    1
    39    15    44    1
    40    16    45    1
    41    16    46    1
    42    17    19   ar
    43    18    47    1
    44    18    48    1
    45    19    20   ar
    46    19    49    1
    47    20    23   ar
    48    20    50    1
    49    21    23   ar
    50    21    51    1
    51    22    24    1
    52    22    52    1
    53    22    53    1
    54    23    54    1
    55    24    25   ar
    56    25    26   ar
    57    26    27   ar
    58    26    55    1
    59    27    56    1
    60    28    57    1
    61    28    58    1
    62    28    59    1
@<TRIPOS>MOLECULE
154925832
 59 62 0 0 0
SMALL
GASTEIGER

@<TRIPOS>ATOM
      1 S           5.2558    1.5492    2.0127 S.2     1  UNL1       -0.0926
      2 O          -3.4780   -1.7041   -1.1056 O.3     1  UNL1       -0.3732
      3 O          -6.8095   -1.7965    1.6320 O.3     1  UNL1       -0.3917
      4 O           3.8479   -1.8599    3.1686 O.3     1  UNL1       -0.4941
      5 N          -2.5393    1.7296   -0.5793 N.ar    1  UNL1       -0.2593
      6 N           1.6860   -0.1462    2.4978 N.4     1  UNL1        0.2308
      7 C          -3.5817   -1.0970    0.1878 C.3     1  UNL1        0.0728
      8 C          -1.1415   -0.2325   -0.0614 C.3     1  UNL1        0.0224
      9 C          -2.1927   -0.9539    0.8332 C.3     1  UNL1       -0.0123
     10 C          -4.4808   -2.0092    1.0377 C.3     1  UNL1        0.0024
     11 C          -4.4284    0.1820    0.1498 C.3     1  UNL1       -0.0213
     12 C          -5.9002   -1.7207    0.5465 C.3     1  UNL1        0.0580
     13 C          -5.8625   -0.3127   -0.0491 C.3     1  UNL1       -0.0242
     14 C          -1.1858   -0.9535   -1.4364 C.3     1  UNL1       -0.0181
     15 C           0.2670   -0.4668    0.5390 C.3     1  UNL1       -0.0013
     16 C          -2.5969   -1.0429   -2.0073 C.3     1  UNL1        0.0492
     17 C          -1.3476    1.2945   -0.1120 C.ar    1  UNL1        0.0478
     18 C           0.3478    0.0706    1.9607 C.3     1  UNL1       -0.0325
     19 C          -0.3286    2.1319    0.3127 C.ar    1  UNL1       -0.0398
     20 C          -0.5467    3.5039    0.2542 C.ar    1  UNL1       -0.0586
     21 C          -2.7149    3.0694   -0.6214 C.ar    1  UNL1        0.0279
     22 C           2.6856    0.5476    1.6980 C.3     1  UNL1        0.0021
     23 C          -1.7599    3.9897   -0.2207 C.ar    1  UNL1       -0.0436
     24 C           4.0783    0.3240    2.2243 C.ar    1  UNL1        0.0756
     25 C           4.5863   -0.7723    2.8862 C.ar    1  UNL1        0.1353
     26 C           5.9599   -0.6040    3.2241 C.ar    1  UNL1       -0.0124
     27 C           6.4499    0.6143    2.8077 C.ar    1  UNL1       -0.0203
     28 C           4.5216   -3.1251    3.2267 C.3     1  UNL1        0.0788
     29 H          -6.8125   -2.6984    1.9889 H       1  UNL1        0.2098
     30 H           1.8897   -1.1457    2.4933 H       1  UNL1        0.2017
     31 H           1.7184    0.2198    3.4493 H       1  UNL1        0.2017
     32 H          -1.8254   -1.9333    1.0585 H       1  UNL1        0.0302
     33 H          -2.3210   -0.3471    1.7051 H       1  UNL1        0.0302
     34 H          -4.3853   -1.7715    2.0766 H       1  UNL1        0.0318
     35 H          -4.2197   -3.0421    0.9381 H       1  UNL1        0.0318
     36 H          -4.1288    0.8097   -0.6633 H       1  UNL1        0.0294
     37 H          -4.3200    0.7679    1.0386 H       1  UNL1        0.0294
     38 H          -6.2264   -2.4315   -0.1837 H       1  UNL1        0.0594
     39 H          -6.1063   -0.3414   -1.0906 H       1  UNL1        0.0291
     40 H          -6.5727    0.3346    0.4216 H       1  UNL1        0.0291
     41 H          -0.8016   -1.9448   -1.3159 H       1  UNL1        0.0296
     42 H          -0.5952   -0.3814   -2.1211 H       1  UNL1        0.0296
     43 H           0.9935    0.0336   -0.0665 H       1  UNL1        0.0326
     44 H           0.4588   -1.5192    0.5600 H       1  UNL1        0.0326
     45 H          -2.9625   -0.0540   -2.1899 H       1  UNL1        0.0560
     46 H          -2.5587   -1.6058   -2.9164 H       1  UNL1        0.0560
     47 H           0.1326    1.1188    1.9565 H       1  UNL1        0.0814
     48 H          -0.3647   -0.4424    2.5723 H       1  UNL1        0.0814
     49 H           0.5641    1.7492    0.6616 H       1  UNL1        0.0636
     50 H           0.1889    4.1590    0.5620 H       1  UNL1        0.0619
     51 H          -3.6159    3.4287   -0.9738 H       1  UNL1        0.0829
     52 H           2.4740    1.5964    1.7134 H       1  UNL1        0.0873
     53 H           2.6410    0.1600    0.7017 H       1  UNL1        0.0873
     54 H          -1.9432    5.0039   -0.2731 H       1  UNL1        0.0633
     55 H           6.5219   -1.3117    3.7224 H       1  UNL1        0.0659
     56 H           7.4220    0.9267    2.9572 H       1  UNL1        0.0694
     57 H           3.8155   -3.8948    3.4589 H       1  UNL1        0.0660
     58 H           5.2763   -3.0928    3.9844 H       1  UNL1        0.0660
     59 H           4.9755   -3.3313    2.2799 H       1  UNL1        0.0660
@<TRIPOS>UNITY_ATOM_ATTR
6 1
charge 1
@<TRIPOS>BOND
     1     1    24   ar
     2     1    27   ar
     3     2    16    1
     4     3    12    1
     5     3    29    1
     6     4    25    1
     7     4    28    1
     8     5    17   ar
     9     5    21   ar
    10     6    18    1
    11     6    22    1
    12     6    30    1
    13     6    31    1
    14     7     2    1
    15     7     9    1
    16     7    10    1
    17     7    11    1
    18     8     9    1
    19     8    14    1
    20     8    15    1
    21     8    17    1
    22     9    32    1
    23     9    33    1
    24    10    12    1
    25    10    34    1
    26    10    35    1
    27    11    13    1
    28    11    36    1
    29    11    37    1
    30    12    13    1
    31    12    38    1
    32    13    39    1
    33    13    40    1
    34    14    16    1
    35    14    41    1
    36    14    42    1
    37    15    18    1
    38    15    43    1
    39    15    44    1
    40    16    45    1
    41    16    46    1
    42    17    19   ar
    43    18    47    1
    44    18    48    1
    45    19    20   ar
    46    19    49    1
    47    20    23   ar
    48    20    50    1
    49    21    23   ar
    50    21    51    1
    51    22    24    1
    52    22    52    1
    53    22    53    1
    54    23    54    1
    55    24    25   ar
    56    25    26   ar
    57    26    27   ar
    58    26    55    1
    59    27    56    1
    60    28    57    1
    61    28    58    1
    62    28    59    1
@<TRIPOS>MOLECULE
154925832
 59 62 0 0 0
SMALL
GASTEIGER

@<TRIPOS>ATOM
      1 S           1.3345   -1.7775    5.5969 S.2     1  UNL1       -0.0926
      2 O          -3.4780   -1.7041   -1.1056 O.3     1  UNL1       -0.3732
      3 O          -6.8095   -1.7965    1.6320 O.3     1  UNL1       -0.3917
      4 O          -1.1001    1.0457    4.5761 O.3     1  UNL1       -0.4941
      5 N          -2.3814    1.7902    0.6045 N.ar    1  UNL1       -0.2593
      6 N           1.6860   -0.1462    2.4978 N.4     1  UNL1        0.2308
      7 C          -3.5817   -1.0970    0.1878 C.3     1  UNL1        0.0728
      8 C          -1.1415   -0.2325   -0.0614 C.3     1  UNL1        0.0224
      9 C          -2.1927   -0.9539    0.8332 C.3     1  UNL1       -0.0123
     10 C          -4.4808   -2.0092    1.0377 C.3     1  UNL1        0.0024
     11 C          -4.4284    0.1820    0.1498 C.3     1  UNL1       -0.0213
     12 C          -5.9002   -1.7207    0.5465 C.3     1  UNL1        0.0580
     13 C          -5.8625   -0.3127   -0.0491 C.3     1  UNL1       -0.0242
     14 C          -1.1858   -0.9535   -1.4364 C.3     1  UNL1       -0.0181
     15 C           0.2670   -0.4668    0.5390 C.3     1  UNL1       -0.0013
     16 C          -2.5969   -1.0429   -2.0073 C.3     1  UNL1        0.0492
     17 C          -1.3476    1.2945   -0.1120 C.ar    1  UNL1        0.0478
     18 C           0.3478    0.0706    1.9607 C.3     1  UNL1       -0.0325
     19 C          -0.4864    2.0714   -0.8701 C.ar    1  UNL1       -0.0398
     20 C          -0.6998    3.4452   -0.8943 C.ar    1  UNL1       -0.0586
     21 C          -2.5576    3.1296    0.5569 C.ar    1  UNL1        0.0279
     22 C           1.7832    0.3454    3.8648 C.3     1  UNL1        0.0021
     23 C          -1.7531    3.9923   -0.1700 C.ar    1  UNL1       -0.0436
     24 C           0.8220   -0.3602    4.7840 C.ar    1  UNL1        0.0756
     25 C          -0.4792   -0.0293    5.0927 C.ar    1  UNL1        0.1353
     26 C          -1.0628   -0.9512    6.0086 C.ar    1  UNL1       -0.0124
     27 C          -0.1857   -1.9519    6.3652 C.ar    1  UNL1       -0.0203
     28 C          -2.1048    1.6831    5.3775 C.3     1  UNL1        0.0788
     29 H          -6.8125   -2.6984    1.9889 H       1  UNL1        0.2098
     30 H           2.3632    0.3475    1.9164 H       1  UNL1        0.2017
     31 H           1.8790   -1.1478    2.4971 H       1  UNL1        0.2017
     32 H          -1.8254   -1.9333    1.0585 H       1  UNL1        0.0302
     33 H          -2.3210   -0.3471    1.7051 H       1  UNL1        0.0302
     34 H          -4.3853   -1.7715    2.0766 H       1  UNL1        0.0318
     35 H          -4.2197   -3.0421    0.9381 H       1  UNL1        0.0318
     36 H          -4.1288    0.8097   -0.6633 H       1  UNL1        0.0294
     37 H          -4.3200    0.7679    1.0386 H       1  UNL1        0.0294
     38 H          -6.2264   -2.4315   -0.1837 H       1  UNL1        0.0594
     39 H          -6.1063   -0.3414   -1.0906 H       1  UNL1        0.0291
     40 H          -6.5727    0.3346    0.4216 H       1  UNL1        0.0291
     41 H          -0.8016   -1.9448   -1.3159 H       1  UNL1        0.0296
     42 H          -0.5952   -0.3814   -2.1211 H       1  UNL1        0.0296
     43 H           0.9935    0.0336   -0.0665 H       1  UNL1        0.0326
     44 H           0.4588   -1.5192    0.5600 H       1  UNL1        0.0326
     45 H          -2.9625   -0.0540   -2.1899 H       1  UNL1        0.0560
     46 H          -2.5587   -1.6058   -2.9164 H       1  UNL1        0.0560
     47 H           0.1326    1.1188    1.9565 H       1  UNL1        0.0814
     48 H          -0.3647   -0.4424    2.5723 H       1  UNL1        0.0814
     49 H           0.2891    1.6438   -1.4000 H       1  UNL1        0.0636
     50 H          -0.0789    4.0563   -1.4475 H       1  UNL1        0.0619
     51 H          -3.3396    3.5346    1.0950 H       1  UNL1        0.0829
     52 H           1.5637    1.3927    3.8724 H       1  UNL1        0.0873
     53 H           2.7765    0.1574    4.2154 H       1  UNL1        0.0873
     54 H          -1.9302    5.0089   -0.1738 H       1  UNL1        0.0633
     55 H          -2.0291   -0.8780    6.3633 H       1  UNL1        0.0659
     56 H          -0.4176   -2.7164    7.0184 H       1  UNL1        0.0694
     57 H          -2.5104    2.5173    4.8440 H       1  UNL1        0.0660
     58 H          -1.6677    2.0235    6.2929 H       1  UNL1        0.0660
     59 H          -2.8855    0.9840    5.5934 H       1  UNL1        0.0660
@<TRIPOS>UNITY_ATOM_ATTR
6 1
charge 1
@<TRIPOS>BOND
     1     1    24   ar
     2     1    27   ar
     3     2    16    1
     4     3    12    1
     5     3    29    1
     6     4    25    1
     7     4    28    1
     8     5    17   ar
     9     5    21   ar
    10     6    18    1
    11     6    22    1
    12     6    30    1
    13     6    31    1
    14     7     2    1
    15     7     9    1
    16     7    10    1
    17     7    11    1
    18     8     9    1
    19     8    14    1
    20     8    15    1
    21     8    17    1
    22     9    32    1
    23     9    33    1
    24    10    12    1
    25    10    34    1
    26    10    35    1
    27    11    13    1
    28    11    36    1
    29    11    37    1
    30    12    13    1
    31    12    38    1
    32    13    39    1
    33    13    40    1
    34    14    16    1
    35    14    41    1
    36    14    42    1
    37    15    18    1
    38    15    43    1
    39    15    44    1
    40    16    45    1
    41    16    46    1
    42    17    19   ar
    43    18    47    1
    44    18    48    1
    45    19    20   ar
    46    19    49    1
    47    20    23   ar
    48    20    50    1
    49    21    23   ar
    50    21    51    1
    51    22    24    1
    52    22    52    1
    53    22    53    1
    54    23    54    1
    55    24    25   ar
    56    25    26   ar
    57    26    27   ar
    58    26    55    1
    59    27    56    1
    60    28    57    1
    61    28    58    1
    62    28    59    1
@<TRIPOS>MOLECULE
154925832
 59 62 0 0 0
SMALL
GASTEIGER

@<TRIPOS>ATOM
      1 S           4.0810   -1.4133   -2.2424 S.2     1  UNL1       -0.0926
      2 O          -3.4780   -1.7041   -1.1056 O.3     1  UNL1       -0.3732
      3 O          -6.8095   -1.7965    1.6320 O.3     1  UNL1       -0.3917
      4 O           1.2229   -3.6466   -0.9067 O.3     1  UNL1       -0.4941
      5 N          -1.8975    1.8680    0.9819 N.ar    1  UNL1       -0.2593
      6 N           2.6511   -0.0149    0.2847 N.4     1  UNL1        0.2308
      7 C          -3.5817   -1.0970    0.1878 C.3     1  UNL1        0.0728
      8 C          -1.1415   -0.2325   -0.0614 C.3     1  UNL1        0.0224
      9 C          -2.1927   -0.9539    0.8332 C.3     1  UNL1       -0.0123
     10 C          -4.4808   -2.0092    1.0377 C.3     1  UNL1        0.0024
     11 C          -4.4284    0.1820    0.1498 C.3     1  UNL1       -0.0213
     12 C          -5.9002   -1.7207    0.5465 C.3     1  UNL1        0.0580
     13 C          -5.8625   -0.3127   -0.0491 C.3     1  UNL1       -0.0242
     14 C          -1.1858   -0.9535   -1.4364 C.3     1  UNL1       -0.0181
     15 C           0.2670   -0.4668    0.5390 C.3     1  UNL1       -0.0013
     16 C          -2.5969   -1.0429   -2.0073 C.3     1  UNL1        0.0492
     17 C          -1.3476    1.2945   -0.1120 C.ar    1  UNL1        0.0478
     18 C           1.3342    0.2337   -0.2898 C.3     1  UNL1       -0.0325
     19 C          -0.9698    1.9936   -1.2471 C.ar    1  UNL1       -0.0398
     20 C          -1.1692    3.3697   -1.2603 C.ar    1  UNL1       -0.0586
     21 C          -2.0760    3.2071    0.9324 C.ar    1  UNL1        0.0279
     22 C           2.9533   -1.4392    0.2945 C.3     1  UNL1        0.0021
     23 C          -1.7324    3.9956   -0.1539 C.ar    1  UNL1       -0.0436
     24 C           2.9641   -2.0196   -1.0947 C.ar    1  UNL1        0.0756
     25 C           2.1729   -3.0173   -1.6205 C.ar    1  UNL1        0.1353
     26 C           2.4879   -3.2875   -2.9832 C.ar    1  UNL1       -0.0124
     27 C           3.5077   -2.4862   -3.4475 C.ar    1  UNL1       -0.0203
     28 C           0.9345   -5.0117   -1.2403 C.3     1  UNL1        0.0788
     29 H          -6.8125   -2.6984    1.9889 H       1  UNL1        0.2098
     30 H           2.6698    0.3370    1.2420 H       1  UNL1        0.2017
     31 H           3.3503    0.4627   -0.2841 H       1  UNL1        0.2017
     32 H          -1.8254   -1.9333    1.0585 H       1  UNL1        0.0302
     33 H          -2.3210   -0.3471    1.7051 H       1  UNL1        0.0302
     34 H          -4.3853   -1.7715    2.0766 H       1  UNL1        0.0318
     35 H          -4.2197   -3.0421    0.9381 H       1  UNL1        0.0318
     36 H          -4.1288    0.8097   -0.6633 H       1  UNL1        0.0294
     37 H          -4.3200    0.7679    1.0386 H       1  UNL1        0.0294
     38 H          -6.2264   -2.4315   -0.1837 H       1  UNL1        0.0594
     39 H          -6.1063   -0.3414   -1.0906 H       1  UNL1        0.0291
     40 H          -6.5727    0.3346    0.4216 H       1  UNL1        0.0291
     41 H          -0.8016   -1.9448   -1.3159 H       1  UNL1        0.0296
     42 H          -0.5952   -0.3814   -2.1211 H       1  UNL1        0.0296
     43 H           0.4702   -1.5172    0.5562 H       1  UNL1        0.0326
     44 H           0.2867   -0.0660    1.5309 H       1  UNL1        0.0326
     45 H          -2.9625   -0.0540   -2.1899 H       1  UNL1        0.0560
     46 H          -2.5587   -1.6058   -2.9164 H       1  UNL1        0.0560
     47 H           1.3078   -0.1407   -1.2918 H       1  UNL1        0.0814
     48 H           1.1438    1.2866   -0.2920 H       1  UNL1        0.0814
     49 H          -0.5535    1.5083   -2.0572 H       1  UNL1        0.0636
     50 H          -0.9002    3.9242   -2.0881 H       1  UNL1        0.0619
     51 H          -2.4939    3.6706    1.7543 H       1  UNL1        0.0829
     52 H           2.2117   -1.9464    0.8757 H       1  UNL1        0.0873
     53 H           3.9283   -1.5689    0.7161 H       1  UNL1        0.0873
     54 H          -1.8897    5.0155   -0.1421 H       1  UNL1        0.0633
     55 H           2.0083   -3.9999   -3.5555 H       1  UNL1        0.0659
     56 H           3.8821   -2.5276   -4.4082 H       1  UNL1        0.0694
     57 H           0.1644   -5.3812   -0.5958 H       1  UNL1        0.0660
     58 H           1.8174   -5.6032   -1.1167 H       1  UNL1        0.0660
     59 H           0.6064   -5.0687   -2.2572 H       1  UNL1        0.0660
@<TRIPOS>UNITY_ATOM_ATTR
6 1
charge 1
@<TRIPOS>BOND
     1     1    24   ar
     2     1    27   ar
     3     2    16    1
     4     3    12    1
     5     3    29    1
     6     4    25    1
     7     4    28    1
     8     5    17   ar
     9     5    21   ar
    10     6    18    1
    11     6    22    1
    12     6    30    1
    13     6    31    1
    14     7     2    1
    15     7     9    1
    16     7    10    1
    17     7    11    1
    18     8     9    1
    19     8    14    1
    20     8    15    1
    21     8    17    1
    22     9    32    1
    23     9    33    1
    24    10    12    1
    25    10    34    1
    26    10    35    1
    27    11    13    1
    28    11    36    1
    29    11    37    1
    30    12    13    1
    31    12    38    1
    32    13    39    1
    33    13    40    1
    34    14    16    1
    35    14    41    1
    36    14    42    1
    37    15    18    1
    38    15    43    1
    39    15    44    1
    40    16    45    1
    41    16    46    1
    42    17    19   ar
    43    18    47    1
    44    18    48    1
    45    19    20   ar
    46    19    49    1
    47    20    23   ar
    48    20    50    1
    49    21    23   ar
    50    21    51    1
    51    22    24    1
    52    22    52    1
    53    22    53    1
    54    23    54    1
    55    24    25   ar
    56    25    26   ar
    57    26    27   ar
    58    26    55    1
    59    27    56    1
    60    28    57    1
    61    28    58    1
    62    28    59    1
@<TRIPOS>MOLECULE
154925832
 59 62 0 0 0
SMALL
GASTEIGER

@<TRIPOS>ATOM
      1 S           4.4107    3.4820   -0.0845 S.2     1  UNL1       -0.0926
      2 O          -3.4780   -1.7041   -1.1056 O.3     1  UNL1       -0.3732
      3 O          -6.8095   -1.7965    1.6320 O.3     1  UNL1       -0.3917
      4 O           3.6344   -0.2441   -0.7580 O.3     1  UNL1       -0.4941
      5 N          -0.6967    2.0248    0.8212 N.ar    1  UNL1       -0.2593
      6 N           1.0858    1.6705   -0.3064 N.4     1  UNL1        0.2308
      7 C          -3.5817   -1.0970    0.1878 C.3     1  UNL1        0.0728
      8 C          -1.1415   -0.2325   -0.0614 C.3     1  UNL1        0.0224
      9 C          -2.1927   -0.9539    0.8332 C.3     1  UNL1       -0.0123
     10 C          -4.4808   -2.0092    1.0377 C.3     1  UNL1        0.0024
     11 C          -4.4284    0.1820    0.1498 C.3     1  UNL1       -0.0213
     12 C          -5.9002   -1.7207    0.5465 C.3     1  UNL1        0.0580
     13 C          -5.8625   -0.3127   -0.0491 C.3     1  UNL1       -0.0242
     14 C          -1.1858   -0.9535   -1.4364 C.3     1  UNL1       -0.0181
     15 C           0.2670   -0.4668    0.5390 C.3     1  UNL1       -0.0013
     16 C          -2.5969   -1.0429   -2.0073 C.3     1  UNL1        0.0492
     17 C          -1.3476    1.2945   -0.1120 C.ar    1  UNL1        0.0478
     18 C           1.3342    0.2337   -0.2898 C.3     1  UNL1       -0.0325
     19 C          -2.1696    1.8370   -1.0866 C.ar    1  UNL1       -0.0398
     20 C          -2.3341    3.2176   -1.1046 C.ar    1  UNL1       -0.0586
     21 C          -0.8807    3.3631    0.7724 C.ar    1  UNL1        0.0279
     22 C           2.0858    2.3615   -1.1080 C.3     1  UNL1        0.0021
     23 C          -1.6810    4.0023   -0.1607 C.ar    1  UNL1       -0.0436
     24 C           3.4789    2.1349   -0.5837 C.ar    1  UNL1        0.0756
     25 C           4.1633    0.9488   -0.4336 C.ar    1  UNL1        0.1353
     26 C           5.4696    1.1487    0.0983 C.ar    1  UNL1       -0.0124
     27 C           5.7343    2.4798    0.3346 C.ar    1  UNL1       -0.0203
     28 C           4.0654   -1.3891   -0.0089 C.3     1  UNL1        0.0788
     29 H          -6.8125   -2.6984    1.9889 H       1  UNL1        0.2098
     30 H           1.1196    2.0263    0.6490 H       1  UNL1        0.2017
     31 H           0.1670    1.8376   -0.7166 H       1  UNL1        0.2017
     32 H          -1.8254   -1.9333    1.0585 H       1  UNL1        0.0302
     33 H          -2.3210   -0.3471    1.7051 H       1  UNL1        0.0302
     34 H          -4.3853   -1.7715    2.0766 H       1  UNL1        0.0318
     35 H          -4.2197   -3.0421    0.9381 H       1  UNL1        0.0318
     36 H          -4.1288    0.8097   -0.6633 H       1  UNL1        0.0294
     37 H          -4.3200    0.7679    1.0386 H       1  UNL1        0.0294
     38 H          -6.2264   -2.4315   -0.1837 H       1  UNL1        0.0594
     39 H          -6.1063   -0.3414   -1.0906 H       1  UNL1        0.0291
     40 H          -6.5727    0.3346    0.4216 H       1  UNL1        0.0291
     41 H          -0.8016   -1.9448   -1.3159 H       1  UNL1        0.0296
     42 H          -0.5952   -0.3814   -2.1211 H       1  UNL1        0.0296
     43 H           0.4702   -1.5172    0.5562 H       1  UNL1        0.0326
     44 H           0.2867   -0.0660    1.5309 H       1  UNL1        0.0326
     45 H          -2.9625   -0.0540   -2.1899 H       1  UNL1        0.0560
     46 H          -2.5587   -1.6058   -2.9164 H       1  UNL1        0.0560
     47 H           2.2966    0.0449    0.1383 H       1  UNL1        0.0814
     48 H           1.3043   -0.1406   -1.2917 H       1  UNL1        0.0814
     49 H          -2.6448    1.2353   -1.7775 H       1  UNL1        0.0636
     50 H          -2.9386    3.6581   -1.8157 H       1  UNL1        0.0619
     51 H          -0.3952    3.9445    1.4733 H       1  UNL1        0.0829
     52 H           1.8768    3.4108   -1.0929 H       1  UNL1        0.0873
     53 H           2.0388    1.9734   -2.1041 H       1  UNL1        0.0873
     54 H          -1.7889    5.0286   -0.1553 H       1  UNL1        0.0633
     55 H           6.1391    0.3858    0.2848 H       1  UNL1        0.0659
     56 H           6.6251    2.8315    0.7188 H       1  UNL1        0.0694
     57 H           3.5659   -2.2624   -0.3733 H       1  UNL1        0.0660
     58 H           3.8292   -1.2484    1.0251 H       1  UNL1        0.0660
     59 H           5.1227   -1.5106   -0.1198 H       1  UNL1        0.0660
@<TRIPOS>UNITY_ATOM_ATTR
6 1
charge 1
@<TRIPOS>BOND
     1     1    24   ar
     2     1    27   ar
     3     2    16    1
     4     3    12    1
     5     3    29    1
     6     4    25    1
     7     4    28    1
     8     5    17   ar
     9     5    21   ar
    10     6    18    1
    11     6    22    1
    12     6    30    1
    13     6    31    1
    14     7     2    1
    15     7     9    1
    16     7    10    1
    17     7    11    1
    18     8     9    1
    19     8    14    1
    20     8    15    1
    21     8    17    1
    22     9    32    1
    23     9    33    1
    24    10    12    1
    25    10    34    1
    26    10    35    1
    27    11    13    1
    28    11    36    1
    29    11    37    1
    30    12    13    1
    31    12    38    1
    32    13    39    1
    33    13    40    1
    34    14    16    1
    35    14    41    1
    36    14    42    1
    37    15    18    1
    38    15    43    1
    39    15    44    1
    40    16    45    1
    41    16    46    1
    42    17    19   ar
    43    18    47    1
    44    18    48    1
    45    19    20   ar
    46    19    49    1
    47    20    23   ar
    48    20    50    1
    49    21    23   ar
    50    21    51    1
    51    22    24    1
    52    22    52    1
    53    22    53    1
    54    23    54    1
    55    24    25   ar
    56    25    26   ar
    57    26    27   ar
    58    26    55    1
    59    27    56    1
    60    28    57    1
    61    28    58    1
    62    28    59    1
@<TRIPOS>MOLECULE
154925832
 59 62 0 0 0
SMALL
GASTEIGER

@<TRIPOS>ATOM
      1 S           3.8539    2.6102    1.0181 S.2     1  UNL1       -0.0926
      2 O          -3.4780   -1.7041   -1.1056 O.3     1  UNL1       -0.3732
      3 O          -6.8095   -1.7965    1.6320 O.3     1  UNL1       -0.3917
      4 O           4.5089    1.1249   -2.4898 O.3     1  UNL1       -0.4941
      5 N          -0.6967    2.0248    0.8212 N.ar    1  UNL1       -0.2593
      6 N           1.0858    1.6705   -0.3064 N.4     1  UNL1        0.2308
      7 C          -3.5817   -1.0970    0.1878 C.3     1  UNL1        0.0728
      8 C          -1.1415   -0.2325   -0.0614 C.3     1  UNL1        0.0224
      9 C          -2.1927   -0.9539    0.8332 C.3     1  UNL1       -0.0123
     10 C          -4.4808   -2.0092    1.0377 C.3     1  UNL1        0.0024
     11 C          -4.4284    0.1820    0.1498 C.3     1  UNL1       -0.0213
     12 C          -5.9002   -1.7207    0.5465 C.3     1  UNL1        0.0580
     13 C          -5.8625   -0.3127   -0.0491 C.3     1  UNL1       -0.0242
     14 C          -1.1858   -0.9535   -1.4364 C.3     1  UNL1       -0.0181
     15 C           0.2670   -0.4668    0.5390 C.3     1  UNL1       -0.0013
     16 C          -2.5969   -1.0429   -2.0073 C.3     1  UNL1        0.0492
     17 C          -1.3476    1.2945   -0.1120 C.ar    1  UNL1        0.0478
     18 C           1.3342    0.2337   -0.2898 C.3     1  UNL1       -0.0325
     19 C          -2.1696    1.8370   -1.0866 C.ar    1  UNL1       -0.0398
     20 C          -2.3341    3.2176   -1.1046 C.ar    1  UNL1       -0.0586
     21 C          -0.8807    3.3631    0.7724 C.ar    1  UNL1        0.0279
     22 C           2.0858    2.3615   -1.1080 C.3     1  UNL1        0.0021
     23 C          -1.6810    4.0023   -0.1607 C.ar    1  UNL1       -0.0436
     24 C           3.4789    2.1349   -0.5837 C.ar    1  UNL1        0.0756
     25 C           4.5626    1.5750   -1.2239 C.ar    1  UNL1        0.1353
     26 C           5.7157    1.5354   -0.3884 C.ar    1  UNL1       -0.0124
     27 C           5.4698    2.0668    0.8586 C.ar    1  UNL1       -0.0203
     28 C           5.3623    0.0271   -2.8427 C.3     1  UNL1        0.0788
     29 H          -6.8125   -2.6984    1.9889 H       1  UNL1        0.2098
     30 H           1.1196    2.0263    0.6490 H       1  UNL1        0.2017
     31 H           0.1670    1.8376   -0.7166 H       1  UNL1        0.2017
     32 H          -1.8254   -1.9333    1.0585 H       1  UNL1        0.0302
     33 H          -2.3210   -0.3471    1.7051 H       1  UNL1        0.0302
     34 H          -4.3853   -1.7715    2.0766 H       1  UNL1        0.0318
     35 H          -4.2197   -3.0421    0.9381 H       1  UNL1        0.0318
     36 H          -4.1288    0.8097   -0.6633 H       1  UNL1        0.0294
     37 H          -4.3200    0.7679    1.0386 H       1  UNL1        0.0294
     38 H          -6.2264   -2.4315   -0.1837 H       1  UNL1        0.0594
     39 H          -6.1063   -0.3414   -1.0906 H       1  UNL1        0.0291
     40 H          -6.5727    0.3346    0.4216 H       1  UNL1        0.0291
     41 H          -0.8016   -1.9448   -1.3159 H       1  UNL1        0.0296
     42 H          -0.5952   -0.3814   -2.1211 H       1  UNL1        0.0296
     43 H           0.4702   -1.5172    0.5562 H       1  UNL1        0.0326
     44 H           0.2867   -0.0660    1.5309 H       1  UNL1        0.0326
     45 H          -2.9625   -0.0540   -2.1899 H       1  UNL1        0.0560
     46 H          -2.5587   -1.6058   -2.9164 H       1  UNL1        0.0560
     47 H           2.2966    0.0449    0.1383 H       1  UNL1        0.0814
     48 H           1.3043   -0.1406   -1.2917 H       1  UNL1        0.0814
     49 H          -2.6448    1.2353   -1.7775 H       1  UNL1        0.0636
     50 H          -2.9386    3.6581   -1.8157 H       1  UNL1        0.0619
     51 H          -0.3952    3.9445    1.4733 H       1  UNL1        0.0829
     52 H           1.8768    3.4108   -1.0929 H       1  UNL1        0.0873
     53 H           2.0388    1.9734   -2.1041 H       1  UNL1        0.0873
     54 H          -1.7889    5.0286   -0.1553 H       1  UNL1        0.0633
     55 H           6.6282    1.1536   -0.6827 H       1  UNL1        0.0659
     56 H           6.1762    2.1298    1.6083 H       1  UNL1        0.0694
     57 H           5.2146   -0.2226   -3.8726 H       1  UNL1        0.0660
     58 H           5.1251   -0.8194   -2.2328 H       1  UNL1        0.0660
     59 H           6.3837    0.3047   -2.6859 H       1  UNL1        0.0660
@<TRIPOS>UNITY_ATOM_ATTR
6 1
charge 1
@<TRIPOS>BOND
     1     1    24   ar
     2     1    27   ar
     3     2    16    1
     4     3    12    1
     5     3    29    1
     6     4    25    1
     7     4    28    1
     8     5    17   ar
     9     5    21   ar
    10     6    18    1
    11     6    22    1
    12     6    30    1
    13     6    31    1
    14     7     2    1
    15     7     9    1
    16     7    10    1
    17     7    11    1
    18     8     9    1
    19     8    14    1
    20     8    15    1
    21     8    17    1
    22     9    32    1
    23     9    33    1
    24    10    12    1
    25    10    34    1
    26    10    35    1
    27    11    13    1
    28    11    36    1
    29    11    37    1
    30    12    13    1
    31    12    38    1
    32    13    39    1
    33    13    40    1
    34    14    16    1
    35    14    41    1
    36    14    42    1
    37    15    18    1
    38    15    43    1
    39    15    44    1
    40    16    45    1
    41    16    46    1
    42    17    19   ar
    43    18    47    1
    44    18    48    1
    45    19    20   ar
    46    19    49    1
    47    20    23   ar
    48    20    50    1
    49    21    23   ar
    50    21    51    1
    51    22    24    1
    52    22    52    1
    53    22    53    1
    54    23    54    1
    55    24    25   ar
    56    25    26   ar
    57    26    27   ar
    58    26    55    1
    59    27    56    1
    60    28    57    1
    61    28    58    1
    62    28    59    1
@<TRIPOS>MOLECULE
154925832
 59 62 0 0 0
SMALL
GASTEIGER

@<TRIPOS>ATOM
      1 S           4.6660   -3.1052    1.8000 S.2     1  UNL1       -0.0926
      2 O          -3.4780   -1.7041   -1.1056 O.3     1  UNL1       -0.3732
      3 O          -6.8095   -1.7965    1.6320 O.3     1  UNL1       -0.3917
      4 O           5.3707    0.3937    0.3164 O.3     1  UNL1       -0.4941
      5 N          -0.9732    1.9188   -1.2513 N.ar    1  UNL1       -0.2593
      6 N           1.9227   -2.1473    1.1614 N.4     1  UNL1        0.2308
      7 C          -3.5817   -1.0970    0.1878 C.3     1  UNL1        0.0728
      8 C          -1.1415   -0.2325   -0.0614 C.3     1  UNL1        0.0224
      9 C          -2.1927   -0.9539    0.8332 C.3     1  UNL1       -0.0123
     10 C          -4.4808   -2.0092    1.0377 C.3     1  UNL1        0.0024
     11 C          -4.4284    0.1820    0.1498 C.3     1  UNL1       -0.0213
     12 C          -5.9002   -1.7207    0.5465 C.3     1  UNL1        0.0580
     13 C          -5.8625   -0.3127   -0.0491 C.3     1  UNL1       -0.0242
     14 C          -1.1858   -0.9535   -1.4364 C.3     1  UNL1       -0.0181
     15 C           0.2670   -0.4668    0.5390 C.3     1  UNL1       -0.0013
     16 C          -2.5969   -1.0429   -2.0073 C.3     1  UNL1        0.0492
     17 C          -1.3476    1.2945   -0.1120 C.ar    1  UNL1        0.0478
     18 C           0.6009   -1.9512    0.5778 C.3     1  UNL1       -0.0325
     19 C          -1.8934    1.9429    0.9841 C.ar    1  UNL1       -0.0398
     20 C          -2.0661    3.3204    0.9060 C.ar    1  UNL1       -0.0586
     21 C          -1.1561    3.2576   -1.2905 C.ar    1  UNL1        0.0279
     22 C           2.9408   -1.4501    0.3884 C.3     1  UNL1        0.0021
     23 C          -1.6928    3.9978   -0.2495 C.ar    1  UNL1       -0.0436
     24 C           4.3176   -1.6525    0.9631 C.ar    1  UNL1        0.0756
     25 C           5.4041   -0.8065    0.9216 C.ar    1  UNL1        0.1353
     26 C           6.5373   -1.3584    1.5854 C.ar    1  UNL1       -0.0124
     27 C           6.2741   -2.6050    2.1091 C.ar    1  UNL1       -0.0203
     28 C           6.5723    1.1773    0.3254 C.3     1  UNL1        0.0788
     29 H          -6.8125   -2.6984    1.9889 H       1  UNL1        0.2098
     30 H           2.1376   -3.1444    1.1741 H       1  UNL1        0.2017
     31 H           1.9192   -1.7714    2.1097 H       1  UNL1        0.2017
     32 H          -1.8254   -1.9333    1.0585 H       1  UNL1        0.0302
     33 H          -2.3210   -0.3471    1.7051 H       1  UNL1        0.0302
     34 H          -4.3853   -1.7715    2.0766 H       1  UNL1        0.0318
     35 H          -4.2197   -3.0421    0.9381 H       1  UNL1        0.0318
     36 H          -4.1288    0.8097   -0.6633 H       1  UNL1        0.0294
     37 H          -4.3200    0.7679    1.0386 H       1  UNL1        0.0294
     38 H          -6.2264   -2.4315   -0.1837 H       1  UNL1        0.0594
     39 H          -6.1063   -0.3414   -1.0906 H       1  UNL1        0.0291
     40 H          -6.5727    0.3346    0.4216 H       1  UNL1        0.0291
     41 H          -0.8016   -1.9448   -1.3159 H       1  UNL1        0.0296
     42 H          -0.5952   -0.3814   -2.1211 H       1  UNL1        0.0296
     43 H           0.2928   -0.0758    1.5346 H       1  UNL1        0.0326
     44 H           0.9878    0.0297   -0.0764 H       1  UNL1        0.0326
     45 H          -2.9625   -0.0540   -2.1899 H       1  UNL1        0.0560
     46 H          -2.5587   -1.6058   -2.9164 H       1  UNL1        0.0560
     47 H          -0.1281   -2.4635    1.1702 H       1  UNL1        0.0814
     48 H           0.5947   -2.3399   -0.4191 H       1  UNL1        0.0814
     49 H          -2.1633    1.4199    1.8319 H       1  UNL1        0.0636
     50 H          -2.4697    3.8380    1.7025 H       1  UNL1        0.0619
     51 H          -0.8790    3.7592   -2.1488 H       1  UNL1        0.0829
     52 H           2.7172   -0.4037    0.3858 H       1  UNL1        0.0873
     53 H           2.9338   -1.8481   -0.6049 H       1  UNL1        0.0873
     54 H          -1.8117    5.0198   -0.3292 H       1  UNL1        0.0633
     55 H           7.4484   -0.8803    1.6646 H       1  UNL1        0.0659
     56 H           6.9647   -3.1708    2.6268 H       1  UNL1        0.0694
     57 H           6.4002    2.1001   -0.1883 H       1  UNL1        0.0660
     58 H           7.3544    0.6364   -0.1652 H       1  UNL1        0.0660
     59 H           6.8586    1.3798    1.3363 H       1  UNL1        0.0660
@<TRIPOS>UNITY_ATOM_ATTR
6 1
charge 1
@<TRIPOS>BOND
     1     1    24   ar
     2     1    27   ar
     3     2    16    1
     4     3    12    1
     5     3    29    1
     6     4    25    1
     7     4    28    1
     8     5    17   ar
     9     5    21   ar
    10     6    18    1
    11     6    22    1
    12     6    30    1
    13     6    31    1
    14     7     2    1
    15     7     9    1
    16     7    10    1
    17     7    11    1
    18     8     9    1
    19     8    14    1
    20     8    15    1
    21     8    17    1
    22     9    32    1
    23     9    33    1
    24    10    12    1
    25    10    34    1
    26    10    35    1
    27    11    13    1
    28    11    36    1
    29    11    37    1
    30    12    13    1
    31    12    38    1
    32    13    39    1
    33    13    40    1
    34    14    16    1
    35    14    41    1
    36    14    42    1
    37    15    18    1
    38    15    43    1
    39    15    44    1
    40    16    45    1
    41    16    46    1
    42    17    19   ar
    43    18    47    1
    44    18    48    1
    45    19    20   ar
    46    19    49    1
    47    20    23   ar
    48    20    50    1
    49    21    23   ar
    50    21    51    1
    51    22    24    1
    52    22    52    1
    53    22    53    1
    54    23    54    1
    55    24    25   ar
    56    25    26   ar
    57    26    27   ar
    58    26    55    1
    59    27    56    1
    60    28    57    1
    61    28    58    1
    62    28    59    1
@<TRIPOS>MOLECULE
154925832
 59 62 0 0 0
SMALL
GASTEIGER

@<TRIPOS>ATOM
      1 S           4.2065   -0.7350    3.6683 S.2     1  UNL1       -0.0926
      2 O          -3.4780   -1.7041   -1.1056 O.3     1  UNL1       -0.3732
      3 O          -6.8095   -1.7965    1.6320 O.3     1  UNL1       -0.3917
      4 O           5.4515    1.4978    0.7692 O.3     1  UNL1       -0.4941
      5 N          -0.6967    2.0248    0.8212 N.ar    1  UNL1       -0.2593
      6 N           2.6511   -0.0149    0.2847 N.4     1  UNL1        0.2308
      7 C          -3.5817   -1.0970    0.1878 C.3     1  UNL1        0.0728
      8 C          -1.1415   -0.2325   -0.0614 C.3     1  UNL1        0.0224
      9 C          -2.1927   -0.9539    0.8332 C.3     1  UNL1       -0.0123
     10 C          -4.4808   -2.0092    1.0377 C.3     1  UNL1        0.0024
     11 C          -4.4284    0.1820    0.1498 C.3     1  UNL1       -0.0213
     12 C          -5.9002   -1.7207    0.5465 C.3     1  UNL1        0.0580
     13 C          -5.8625   -0.3127   -0.0491 C.3     1  UNL1       -0.0242
     14 C          -1.1858   -0.9535   -1.4364 C.3     1  UNL1       -0.0181
     15 C           0.2670   -0.4668    0.5390 C.3     1  UNL1       -0.0013
     16 C          -2.5969   -1.0429   -2.0073 C.3     1  UNL1        0.0492
     17 C          -1.3476    1.2945   -0.1120 C.ar    1  UNL1        0.0478
     18 C           1.3342    0.2337   -0.2898 C.3     1  UNL1       -0.0325
     19 C          -2.1696    1.8370   -1.0866 C.ar    1  UNL1       -0.0398
     20 C          -2.3341    3.2176   -1.1046 C.ar    1  UNL1       -0.0586
     21 C          -0.8807    3.3631    0.7724 C.ar    1  UNL1        0.0279
     22 C           2.7195    0.4689    1.6564 C.3     1  UNL1        0.0021
     23 C          -1.6810    4.0023   -0.1607 C.ar    1  UNL1       -0.0436
     24 C           4.0770    0.2381    2.2652 C.ar    1  UNL1        0.0756
     25 C           5.3020    0.7128    1.8505 C.ar    1  UNL1        0.1353
     26 C           6.3605    0.2716    2.6956 C.ar    1  UNL1       -0.0124
     27 C           5.9047   -0.5233    3.7242 C.ar    1  UNL1       -0.0203
     28 C           4.5108    1.3408   -0.3025 C.3     1  UNL1        0.0788
     29 H          -6.8125   -2.6984    1.9889 H       1  UNL1        0.2098
     30 H           3.3557    0.4660   -0.2745 H       1  UNL1        0.2017
     31 H           2.8220   -1.0206    0.2850 H       1  UNL1        0.2017
     32 H          -1.8254   -1.9333    1.0585 H       1  UNL1        0.0302
     33 H          -2.3210   -0.3471    1.7051 H       1  UNL1        0.0302
     34 H          -4.3853   -1.7715    2.0766 H       1  UNL1        0.0318
     35 H          -4.2197   -3.0421    0.9381 H       1  UNL1        0.0318
     36 H          -4.1288    0.8097   -0.6633 H       1  UNL1        0.0294
     37 H          -4.3200    0.7679    1.0386 H       1  UNL1        0.0294
     38 H          -6.2264   -2.4315   -0.1837 H       1  UNL1        0.0594
     39 H          -6.1063   -0.3414   -1.0906 H       1  UNL1        0.0291
     40 H          -6.5727    0.3346    0.4216 H       1  UNL1        0.0291
     41 H          -0.8016   -1.9448   -1.3159 H       1  UNL1        0.0296
     42 H          -0.5952   -0.3814   -2.1211 H       1  UNL1        0.0296
     43 H           0.4702   -1.5172    0.5562 H       1  UNL1        0.0326
     44 H           0.2867   -0.0660    1.5309 H       1  UNL1        0.0326
     45 H          -2.9625   -0.0540   -2.1899 H       1  UNL1        0.0560
     46 H          -2.5587   -1.6058   -2.9164 H       1  UNL1        0.0560
     47 H           1.3078   -0.1407   -1.2918 H       1  UNL1        0.0814
     48 H           1.1438    1.2866   -0.2920 H       1  UNL1        0.0814
     49 H          -2.6448    1.2353   -1.7775 H       1  UNL1        0.0636
     50 H          -2.9386    3.6581   -1.8157 H       1  UNL1        0.0619
     51 H          -0.3952    3.9445    1.4733 H       1  UNL1        0.0829
     52 H           1.9858   -0.0451    2.2416 H       1  UNL1        0.0873
     53 H           2.5350    1.5229    1.6462 H       1  UNL1        0.0873
     54 H          -1.7889    5.0286   -0.1553 H       1  UNL1        0.0633
     55 H           7.3525    0.5186    2.5539 H       1  UNL1        0.0659
     56 H           6.5148   -0.9419    4.4436 H       1  UNL1        0.0694
     57 H           4.7501    2.0245   -1.0901 H       1  UNL1        0.0660
     58 H           3.5235    1.5424    0.0572 H       1  UNL1        0.0660
     59 H           4.5573    0.3384   -0.6739 H       1  UNL1        0.0660
@<TRIPOS>UNITY_ATOM_ATTR
6 1
charge 1
@<TRIPOS>BOND
     1     1    24   ar
     2     1    27   ar
     3     2    16    1
     4     3    12    1
     5     3    29    1
     6     4    25    1
     7     4    28    1
     8     5    17   ar
     9     5    21   ar
    10     6    18    1
    11     6    22    1
    12     6    30    1
    13     6    31    1
    14     7     2    1
    15     7     9    1
    16     7    10    1
    17     7    11    1
    18     8     9    1
    19     8    14    1
    20     8    15    1
    21     8    17    1
    22     9    32    1
    23     9    33    1
    24    10    12    1
    25    10    34    1
    26    10    35    1
    27    11    13    1
    28    11    36    1
    29    11    37    1
    30    12    13    1
    31    12    38    1
    32    13    39    1
    33    13    40    1
    34    14    16    1
    35    14    41    1
    36    14    42    1
    37    15    18    1
    38    15    43    1
    39    15    44    1
    40    16    45    1
    41    16    46    1
    42    17    19   ar
    43    18    47    1
    44    18    48    1
    45    19    20   ar
    46    19    49    1
    47    20    23   ar
    48    20    50    1
    49    21    23   ar
    50    21    51    1
    51    22    24    1
    52    22    52    1
    53    22    53    1
    54    23    54    1
    55    24    25   ar
    56    25    26   ar
    57    26    27   ar
    58    26    55    1
    59    27    56    1
    60    28    57    1
    61    28    58    1
    62    28    59    1
@<TRIPOS>MOLECULE
154925832
 59 62 0 0 0
SMALL
GASTEIGER

@<TRIPOS>ATOM
      1 S           6.4072    0.3851   -0.9744 S.2     1  UNL1       -0.0926
      2 O          -3.4780   -1.7041   -1.1056 O.3     1  UNL1       -0.3732
      3 O          -6.8095   -1.7965    1.6320 O.3     1  UNL1       -0.3917
      4 O           4.5391    0.1338    2.4002 O.3     1  UNL1       -0.4941
      5 N          -2.1487    1.7653   -1.0941 N.ar    1  UNL1       -0.2593
      6 N           2.6511   -0.0149    0.2847 N.4     1  UNL1        0.2308
      7 C          -3.5817   -1.0970    0.1878 C.3     1  UNL1        0.0728
      8 C          -1.1415   -0.2325   -0.0614 C.3     1  UNL1        0.0224
      9 C          -2.1927   -0.9539    0.8332 C.3     1  UNL1       -0.0123
     10 C          -4.4808   -2.0092    1.0377 C.3     1  UNL1        0.0024
     11 C          -4.4284    0.1820    0.1498 C.3     1  UNL1       -0.0213
     12 C          -5.9002   -1.7207    0.5465 C.3     1  UNL1        0.0580
     13 C          -5.8625   -0.3127   -0.0491 C.3     1  UNL1       -0.0242
     14 C          -1.1858   -0.9535   -1.4364 C.3     1  UNL1       -0.0181
     15 C           0.2670   -0.4668    0.5390 C.3     1  UNL1       -0.0013
     16 C          -2.5969   -1.0429   -2.0073 C.3     1  UNL1        0.0492
     17 C          -1.3476    1.2945   -0.1120 C.ar    1  UNL1        0.0478
     18 C           1.3342    0.2337   -0.2898 C.3     1  UNL1       -0.0325
     19 C          -0.7189    2.0962    0.8271 C.ar    1  UNL1       -0.0398
     20 C          -0.9257    3.4693    0.7536 C.ar    1  UNL1       -0.0586
     21 C          -2.3261    3.1049   -1.1339 C.ar    1  UNL1        0.0279
     22 C           3.6886    0.6598   -0.4825 C.3     1  UNL1        0.0021
     23 C          -1.7431    3.9912   -0.2427 C.ar    1  UNL1       -0.0436
     24 C           5.0602    0.4032    0.0828 C.ar    1  UNL1        0.0756
     25 C           5.4257    0.1662    1.3897 C.ar    1  UNL1        0.1353
     26 C           6.8298   -0.0327    1.5249 C.ar    1  UNL1       -0.0124
     27 C           7.4844    0.0597    0.3162 C.ar    1  UNL1       -0.0203
     28 C           4.9939    0.5422    3.6980 C.3     1  UNL1        0.0788
     29 H          -6.8125   -2.6984    1.9889 H       1  UNL1        0.2098
     30 H           2.8328   -1.0186    0.2815 H       1  UNL1        0.2017
     31 H           2.6641    0.3464    1.2385 H       1  UNL1        0.2017
     32 H          -1.8254   -1.9333    1.0585 H       1  UNL1        0.0302
     33 H          -2.3210   -0.3471    1.7051 H       1  UNL1        0.0302
     34 H          -4.3853   -1.7715    2.0766 H       1  UNL1        0.0318
     35 H          -4.2197   -3.0421    0.9381 H       1  UNL1        0.0318
     36 H          -4.1288    0.8097   -0.6633 H       1  UNL1        0.0294
     37 H          -4.3200    0.7679    1.0386 H       1  UNL1        0.0294
     38 H          -6.2264   -2.4315   -0.1837 H       1  UNL1        0.0594
     39 H          -6.1063   -0.3414   -1.0906 H       1  UNL1        0.0291
     40 H          -6.5727    0.3346    0.4216 H       1  UNL1        0.0291
     41 H          -0.8016   -1.9448   -1.3159 H       1  UNL1        0.0296
     42 H          -0.5952   -0.3814   -2.1211 H       1  UNL1        0.0296
     43 H           0.4702   -1.5172    0.5562 H       1  UNL1        0.0326
     44 H           0.2867   -0.0660    1.5309 H       1  UNL1        0.0326
     45 H          -2.9625   -0.0540   -2.1899 H       1  UNL1        0.0560
     46 H          -2.5587   -1.6058   -2.9164 H       1  UNL1        0.0560
     47 H           1.3078   -0.1407   -1.2918 H       1  UNL1        0.0814
     48 H           1.1438    1.2866   -0.2920 H       1  UNL1        0.0814
     49 H          -0.1162    1.6871    1.5581 H       1  UNL1        0.0636
     50 H          -0.4743    4.0985    1.4358 H       1  UNL1        0.0619
     51 H          -2.9333    3.4911   -1.8737 H       1  UNL1        0.0829
     52 H           3.4999    1.7129   -0.4683 H       1  UNL1        0.0873
     53 H           3.6643    0.2774   -1.4815 H       1  UNL1        0.0873
     54 H          -1.9103    5.0069   -0.3162 H       1  UNL1        0.0633
     55 H           7.3013   -0.2236    2.4228 H       1  UNL1        0.0659
     56 H           8.5037   -0.0537    0.2021 H       1  UNL1        0.0694
     57 H           4.1886    0.4659    4.3984 H       1  UNL1        0.0660
     58 H           5.3336    1.5559    3.6541 H       1  UNL1        0.0660
     59 H           5.7986   -0.0905    4.0094 H       1  UNL1        0.0660
@<TRIPOS>UNITY_ATOM_ATTR
6 1
charge 1
@<TRIPOS>BOND
     1     1    24   ar
     2     1    27   ar
     3     2    16    1
     4     3    12    1
     5     3    29    1
     6     4    25    1
     7     4    28    1
     8     5    17   ar
     9     5    21   ar
    10     6    18    1
    11     6    22    1
    12     6    30    1
    13     6    31    1
    14     7     2    1
    15     7     9    1
    16     7    10    1
    17     7    11    1
    18     8     9    1
    19     8    14    1
    20     8    15    1
    21     8    17    1
    22     9    32    1
    23     9    33    1
    24    10    12    1
    25    10    34    1
    26    10    35    1
    27    11    13    1
    28    11    36    1
    29    11    37    1
    30    12    13    1
    31    12    38    1
    32    13    39    1
    33    13    40    1
    34    14    16    1
    35    14    41    1
    36    14    42    1
    37    15    18    1
    38    15    43    1
    39    15    44    1
    40    16    45    1
    41    16    46    1
    42    17    19   ar
    43    18    47    1
    44    18    48    1
    45    19    20   ar
    46    19    49    1
    47    20    23   ar
    48    20    50    1
    49    21    23   ar
    50    21    51    1
    51    22    24    1
    52    22    52    1
    53    22    53    1
    54    23    54    1
    55    24    25   ar
    56    25    26   ar
    57    26    27   ar
    58    26    55    1
    59    27    56    1
    60    28    57    1
    61    28    58    1
    62    28    59    1
@<TRIPOS>MOLECULE
154925832
 59 62 0 0 0
SMALL
GASTEIGER

@<TRIPOS>ATOM
      1 S           0.0342    4.4216    2.5269 S.2     1  UNL1       -0.0926
      2 O          -3.4780   -1.7041   -1.1056 O.3     1  UNL1       -0.3732
      3 O          -6.8095   -1.7965    1.6320 O.3     1  UNL1       -0.3917
      4 O           1.5144    4.3064   -1.0419 O.3     1  UNL1       -0.4941
      5 N          -0.4848    1.9970   -0.8800 N.ar    1  UNL1       -0.2593
      6 N           0.0578    1.4996    1.9681 N.4     1  UNL1        0.2308
      7 C          -3.5817   -1.0970    0.1878 C.3     1  UNL1        0.0728
      8 C          -1.1415   -0.2325   -0.0614 C.3     1  UNL1        0.0224
      9 C          -2.1927   -0.9539    0.8332 C.3     1  UNL1       -0.0123
     10 C          -4.4808   -2.0092    1.0377 C.3     1  UNL1        0.0024
     11 C          -4.4284    0.1820    0.1498 C.3     1  UNL1       -0.0213
     12 C          -5.9002   -1.7207    0.5465 C.3     1  UNL1        0.0580
     13 C          -5.8625   -0.3127   -0.0491 C.3     1  UNL1       -0.0242
     14 C          -1.1858   -0.9535   -1.4364 C.3     1  UNL1       -0.0181
     15 C           0.2670   -0.4668    0.5390 C.3     1  UNL1       -0.0013
     16 C          -2.5969   -1.0429   -2.0073 C.3     1  UNL1        0.0492
     17 C          -1.3476    1.2945   -0.1120 C.ar    1  UNL1        0.0478
     18 C           0.3478    0.0706    1.9607 C.3     1  UNL1       -0.0325
     19 C          -2.3814    1.8648    0.6132 C.ar    1  UNL1       -0.0398
     20 C          -2.5399    3.2445    0.5458 C.ar    1  UNL1       -0.0586
     21 C          -0.6699    3.3355   -0.9210 C.ar    1  UNL1        0.0279
     22 C           1.0015    2.2257    1.1302 C.3     1  UNL1        0.0021
     23 C          -1.6719    4.0012   -0.2335 C.ar    1  UNL1       -0.0436
     24 C           0.7318    3.7070    1.1359 C.ar    1  UNL1        0.0756
     25 C           0.9695    4.6323    0.1434 C.ar    1  UNL1        0.1353
     26 C           0.5739    5.9451    0.5302 C.ar    1  UNL1       -0.0124
     27 C           0.0488    5.9734    1.8034 C.ar    1  UNL1       -0.0203
     28 C           1.1379    5.0874   -2.1847 C.3     1  UNL1        0.0788
     29 H          -6.8125   -2.6984    1.9889 H       1  UNL1        0.2098
     30 H           0.1231    1.8486    2.9244 H       1  UNL1        0.2017
     31 H          -0.8826    1.6432    1.5999 H       1  UNL1        0.2017
     32 H          -1.8254   -1.9333    1.0585 H       1  UNL1        0.0302
     33 H          -2.3210   -0.3471    1.7051 H       1  UNL1        0.0302
     34 H          -4.3853   -1.7715    2.0766 H       1  UNL1        0.0318
     35 H          -4.2197   -3.0421    0.9381 H       1  UNL1        0.0318
     36 H          -4.1288    0.8097   -0.6633 H       1  UNL1        0.0294
     37 H          -4.3200    0.7679    1.0386 H       1  UNL1        0.0294
     38 H          -6.2264   -2.4315   -0.1837 H       1  UNL1        0.0594
     39 H          -6.1063   -0.3414   -1.0906 H       1  UNL1        0.0291
     40 H          -6.5727    0.3346    0.4216 H       1  UNL1        0.0291
     41 H          -0.8016   -1.9448   -1.3159 H       1  UNL1        0.0296
     42 H          -0.5952   -0.3814   -2.1211 H       1  UNL1        0.0296
     43 H           0.9935    0.0336   -0.0665 H       1  UNL1        0.0326
     44 H           0.4588   -1.5192    0.5600 H       1  UNL1        0.0326
     45 H          -2.9625   -0.0540   -2.1899 H       1  UNL1        0.0560
     46 H          -2.5587   -1.6058   -2.9164 H       1  UNL1        0.0560
     47 H          -0.3656   -0.4394    2.5738 H       1  UNL1        0.0814
     48 H           1.3341   -0.0908    2.3428 H       1  UNL1        0.0814
     49 H          -3.0139    1.2836    1.1854 H       1  UNL1        0.0636
     50 H          -3.2987    3.7052    1.0722 H       1  UNL1        0.0619
     51 H          -0.0252    3.8959   -1.5001 H       1  UNL1        0.0829
     52 H           0.9228    1.8636    0.1263 H       1  UNL1        0.0873
     53 H           1.9844    2.0657    1.5216 H       1  UNL1        0.0873
     54 H          -1.7708    5.0263   -0.2979 H       1  UNL1        0.0633
     55 H           0.6695    6.7772   -0.0727 H       1  UNL1        0.0659
     56 H          -0.2952    6.8290    2.2666 H       1  UNL1        0.0694
     57 H           1.6444    4.7177   -3.0518 H       1  UNL1        0.0660
     58 H           1.4080    6.1099   -2.0226 H       1  UNL1        0.0660
     59 H           0.0804    5.0169   -2.3323 H       1  UNL1        0.0660
@<TRIPOS>UNITY_ATOM_ATTR
6 1
charge 1
@<TRIPOS>BOND
     1     1    24   ar
     2     1    27   ar
     3     2    16    1
     4     3    12    1
     5     3    29    1
     6     4    25    1
     7     4    28    1
     8     5    17   ar
     9     5    21   ar
    10     6    18    1
    11     6    22    1
    12     6    30    1
    13     6    31    1
    14     7     2    1
    15     7     9    1
    16     7    10    1
    17     7    11    1
    18     8     9    1
    19     8    14    1
    20     8    15    1
    21     8    17    1
    22     9    32    1
    23     9    33    1
    24    10    12    1
    25    10    34    1
    26    10    35    1
    27    11    13    1
    28    11    36    1
    29    11    37    1
    30    12    13    1
    31    12    38    1
    32    13    39    1
    33    13    40    1
    34    14    16    1
    35    14    41    1
    36    14    42    1
    37    15    18    1
    38    15    43    1
    39    15    44    1
    40    16    45    1
    41    16    46    1
    42    17    19   ar
    43    18    47    1
    44    18    48    1
    45    19    20   ar
    46    19    49    1
    47    20    23   ar
    48    20    50    1
    49    21    23   ar
    50    21    51    1
    51    22    24    1
    52    22    52    1
    53    22    53    1
    54    23    54    1
    55    24    25   ar
    56    25    26   ar
    57    26    27   ar
    58    26    55    1
    59    27    56    1
    60    28    57    1
    61    28    58    1
    62    28    59    1
@<TRIPOS>MOLECULE
154925832
 59 62 0 0 0
SMALL
GASTEIGER

@<TRIPOS>ATOM
      1 S           0.8824   -4.8567   -0.8302 S.2     1  UNL1       -0.0926
      2 O          -3.4780   -1.7041   -1.1056 O.3     1  UNL1       -0.3732
      3 O          -6.8095   -1.7965    1.6320 O.3     1  UNL1       -0.3917
      4 O           4.5902   -3.7659   -0.7790 O.3     1  UNL1       -0.4941
      5 N          -0.6967    2.0248    0.8212 N.ar    1  UNL1       -0.2593
      6 N           1.9227   -2.1473    1.1614 N.4     1  UNL1        0.2308
      7 C          -3.5817   -1.0970    0.1878 C.3     1  UNL1        0.0728
      8 C          -1.1415   -0.2325   -0.0614 C.3     1  UNL1        0.0224
      9 C          -2.1927   -0.9539    0.8332 C.3     1  UNL1       -0.0123
     10 C          -4.4808   -2.0092    1.0377 C.3     1  UNL1        0.0024
     11 C          -4.4284    0.1820    0.1498 C.3     1  UNL1       -0.0213
     12 C          -5.9002   -1.7207    0.5465 C.3     1  UNL1        0.0580
     13 C          -5.8625   -0.3127   -0.0491 C.3     1  UNL1       -0.0242
     14 C          -1.1858   -0.9535   -1.4364 C.3     1  UNL1       -0.0181
     15 C           0.2670   -0.4668    0.5390 C.3     1  UNL1       -0.0013
     16 C          -2.5969   -1.0429   -2.0073 C.3     1  UNL1        0.0492
     17 C          -1.3476    1.2945   -0.1120 C.ar    1  UNL1        0.0478
     18 C           0.6009   -1.9512    0.5778 C.3     1  UNL1       -0.0325
     19 C          -2.1696    1.8370   -1.0866 C.ar    1  UNL1       -0.0398
     20 C          -2.3341    3.2176   -1.1046 C.ar    1  UNL1       -0.0586
     21 C          -0.8807    3.3631    0.7724 C.ar    1  UNL1        0.0279
     22 C           2.2719   -3.5605    1.1941 C.3     1  UNL1        0.0021
     23 C          -1.6810    4.0023   -0.1607 C.ar    1  UNL1       -0.0436
     24 C           2.3084   -4.1610   -0.1861 C.ar    1  UNL1        0.0756
     25 C           3.3669   -4.2458   -1.0638 C.ar    1  UNL1        0.1353
     26 C           3.0023   -4.8901   -2.2809 C.ar    1  UNL1       -0.0124
     27 C           1.6791   -5.2735   -2.2874 C.ar    1  UNL1       -0.0203
     28 C           5.3904   -3.2923   -1.8714 C.3     1  UNL1        0.0788
     29 H          -6.8125   -2.6984    1.9889 H       1  UNL1        0.2098
     30 H           1.9253   -1.7807    2.1133 H       1  UNL1        0.2017
     31 H           2.6083   -1.6554    0.5883 H       1  UNL1        0.2017
     32 H          -1.8254   -1.9333    1.0585 H       1  UNL1        0.0302
     33 H          -2.3210   -0.3471    1.7051 H       1  UNL1        0.0302
     34 H          -4.3853   -1.7715    2.0766 H       1  UNL1        0.0318
     35 H          -4.2197   -3.0421    0.9381 H       1  UNL1        0.0318
     36 H          -4.1288    0.8097   -0.6633 H       1  UNL1        0.0294
     37 H          -4.3200    0.7679    1.0386 H       1  UNL1        0.0294
     38 H          -6.2264   -2.4315   -0.1837 H       1  UNL1        0.0594
     39 H          -6.1063   -0.3414   -1.0906 H       1  UNL1        0.0291
     40 H          -6.5727    0.3346    0.4216 H       1  UNL1        0.0291
     41 H          -0.8016   -1.9448   -1.3159 H       1  UNL1        0.0296
     42 H          -0.5952   -0.3814   -2.1211 H       1  UNL1        0.0296
     43 H           0.2928   -0.0758    1.5346 H       1  UNL1        0.0326
     44 H           0.9878    0.0297   -0.0764 H       1  UNL1        0.0326
     45 H          -2.9625   -0.0540   -2.1899 H       1  UNL1        0.0560
     46 H          -2.5587   -1.6058   -2.9164 H       1  UNL1        0.0560
     47 H          -0.1281   -2.4635    1.1702 H       1  UNL1        0.0814
     48 H           0.5947   -2.3399   -0.4191 H       1  UNL1        0.0814
     49 H          -2.6448    1.2353   -1.7775 H       1  UNL1        0.0636
     50 H          -2.9386    3.6581   -1.8157 H       1  UNL1        0.0619
     51 H          -0.3952    3.9445    1.4733 H       1  UNL1        0.0829
     52 H           1.5448   -4.0832    1.7798 H       1  UNL1        0.0873
     53 H           3.2486   -3.6513    1.6215 H       1  UNL1        0.0873
     54 H          -1.7889    5.0286   -0.1553 H       1  UNL1        0.0633
     55 H           3.6530   -5.0508   -3.0655 H       1  UNL1        0.0659
     56 H           1.2220   -5.7551   -3.0773 H       1  UNL1        0.0694
     57 H           6.3307   -2.9426   -1.4993 H       1  UNL1        0.0660
     58 H           4.8816   -2.4907   -2.3648 H       1  UNL1        0.0660
     59 H           5.5556   -4.0903   -2.5648 H       1  UNL1        0.0660
@<TRIPOS>UNITY_ATOM_ATTR
6 1
charge 1
@<TRIPOS>BOND
     1     1    24   ar
     2     1    27   ar
     3     2    16    1
     4     3    12    1
     5     3    29    1
     6     4    25    1
     7     4    28    1
     8     5    17   ar
     9     5    21   ar
    10     6    18    1
    11     6    22    1
    12     6    30    1
    13     6    31    1
    14     7     2    1
    15     7     9    1
    16     7    10    1
    17     7    11    1
    18     8     9    1
    19     8    14    1
    20     8    15    1
    21     8    17    1
    22     9    32    1
    23     9    33    1
    24    10    12    1
    25    10    34    1
    26    10    35    1
    27    11    13    1
    28    11    36    1
    29    11    37    1
    30    12    13    1
    31    12    38    1
    32    13    39    1
    33    13    40    1
    34    14    16    1
    35    14    41    1
    36    14    42    1
    37    15    18    1
    38    15    43    1
    39    15    44    1
    40    16    45    1
    41    16    46    1
    42    17    19   ar
    43    18    47    1
    44    18    48    1
    45    19    20   ar
    46    19    49    1
    47    20    23   ar
    48    20    50    1
    49    21    23   ar
    50    21    51    1
    51    22    24    1
    52    22    52    1
    53    22    53    1
    54    23    54    1
    55    24    25   ar
    56    25    26   ar
    57    26    27   ar
    58    26    55    1
    59    27    56    1
    60    28    57    1
    61    28    58    1
    62    28    59    1
@<TRIPOS>MOLECULE
154925832
 59 62 0 0 0
SMALL
GASTEIGER

@<TRIPOS>ATOM
      1 S           1.2888   -3.5174   -1.4021 S.2     1  UNL1       -0.0926
      2 O          -3.4780   -1.7041   -1.1056 O.3     1  UNL1       -0.3732
      3 O          -6.8095   -1.7965    1.6320 O.3     1  UNL1       -0.3917
      4 O           3.9523   -5.8693    0.1193 O.3     1  UNL1       -0.4941
      5 N          -0.6967    2.0248    0.8212 N.ar    1  UNL1       -0.2593
      6 N           1.9227   -2.1473    1.1614 N.4     1  UNL1        0.2308
      7 C          -3.5817   -1.0970    0.1878 C.3     1  UNL1        0.0728
      8 C          -1.1415   -0.2325   -0.0614 C.3     1  UNL1        0.0224
      9 C          -2.1927   -0.9539    0.8332 C.3     1  UNL1       -0.0123
     10 C          -4.4808   -2.0092    1.0377 C.3     1  UNL1        0.0024
     11 C          -4.4284    0.1820    0.1498 C.3     1  UNL1       -0.0213
     12 C          -5.9002   -1.7207    0.5465 C.3     1  UNL1        0.0580
     13 C          -5.8625   -0.3127   -0.0491 C.3     1  UNL1       -0.0242
     14 C          -1.1858   -0.9535   -1.4364 C.3     1  UNL1       -0.0181
     15 C           0.2670   -0.4668    0.5390 C.3     1  UNL1       -0.0013
     16 C          -2.5969   -1.0429   -2.0073 C.3     1  UNL1        0.0492
     17 C          -1.3476    1.2945   -0.1120 C.ar    1  UNL1        0.0478
     18 C           0.6009   -1.9512    0.5778 C.3     1  UNL1       -0.0325
     19 C          -2.1696    1.8370   -1.0866 C.ar    1  UNL1       -0.0398
     20 C          -2.3341    3.2176   -1.1046 C.ar    1  UNL1       -0.0586
     21 C          -0.8807    3.3631    0.7724 C.ar    1  UNL1        0.0279
     22 C           2.2719   -3.5605    1.1941 C.3     1  UNL1        0.0021
     23 C          -1.6810    4.0023   -0.1607 C.ar    1  UNL1       -0.0436
     24 C           2.3084   -4.1610   -0.1861 C.ar    1  UNL1        0.0756
     25 C           3.0744   -5.2061   -0.6537 C.ar    1  UNL1        0.1353
     26 C           2.8211   -5.4820   -2.0281 C.ar    1  UNL1       -0.0124
     27 C           1.8710   -4.6374   -2.5590 C.ar    1  UNL1       -0.0203
     28 C           5.1127   -6.4236   -0.5164 C.3     1  UNL1        0.0788
     29 H          -6.8125   -2.6984    1.9889 H       1  UNL1        0.2098
     30 H           1.9253   -1.7807    2.1133 H       1  UNL1        0.2017
     31 H           2.6083   -1.6554    0.5883 H       1  UNL1        0.2017
     32 H          -1.8254   -1.9333    1.0585 H       1  UNL1        0.0302
     33 H          -2.3210   -0.3471    1.7051 H       1  UNL1        0.0302
     34 H          -4.3853   -1.7715    2.0766 H       1  UNL1        0.0318
     35 H          -4.2197   -3.0421    0.9381 H       1  UNL1        0.0318
     36 H          -4.1288    0.8097   -0.6633 H       1  UNL1        0.0294
     37 H          -4.3200    0.7679    1.0386 H       1  UNL1        0.0294
     38 H          -6.2264   -2.4315   -0.1837 H       1  UNL1        0.0594
     39 H          -6.1063   -0.3414   -1.0906 H       1  UNL1        0.0291
     40 H          -6.5727    0.3346    0.4216 H       1  UNL1        0.0291
     41 H          -0.8016   -1.9448   -1.3159 H       1  UNL1        0.0296
     42 H          -0.5952   -0.3814   -2.1211 H       1  UNL1        0.0296
     43 H           0.2928   -0.0758    1.5346 H       1  UNL1        0.0326
     44 H           0.9878    0.0297   -0.0764 H       1  UNL1        0.0326
     45 H          -2.9625   -0.0540   -2.1899 H       1  UNL1        0.0560
     46 H          -2.5587   -1.6058   -2.9164 H       1  UNL1        0.0560
     47 H          -0.1281   -2.4635    1.1702 H       1  UNL1        0.0814
     48 H           0.5947   -2.3399   -0.4191 H       1  UNL1        0.0814
     49 H          -2.6448    1.2353   -1.7775 H       1  UNL1        0.0636
     50 H          -2.9386    3.6581   -1.8157 H       1  UNL1        0.0619
     51 H          -0.3952    3.9445    1.4733 H       1  UNL1        0.0829
     52 H           1.5448   -4.0832    1.7798 H       1  UNL1        0.0873
     53 H           3.2486   -3.6513    1.6215 H       1  UNL1        0.0873
     54 H          -1.7889    5.0286   -0.1553 H       1  UNL1        0.0633
     55 H           3.2938   -6.2271   -2.5633 H       1  UNL1        0.0659
     56 H           1.5483   -4.6753   -3.5385 H       1  UNL1        0.0694
     57 H           5.7174   -6.9190    0.2143 H       1  UNL1        0.0660
     58 H           5.6777   -5.6387   -0.9742 H       1  UNL1        0.0660
     59 H           4.8086   -7.1266   -1.2636 H       1  UNL1        0.0660
@<TRIPOS>UNITY_ATOM_ATTR
6 1
charge 1
@<TRIPOS>BOND
     1     1    24   ar
     2     1    27   ar
     3     2    16    1
     4     3    12    1
     5     3    29    1
     6     4    25    1
     7     4    28    1
     8     5    17   ar
     9     5    21   ar
    10     6    18    1
    11     6    22    1
    12     6    30    1
    13     6    31    1
    14     7     2    1
    15     7     9    1
    16     7    10    1
    17     7    11    1
    18     8     9    1
    19     8    14    1
    20     8    15    1
    21     8    17    1
    22     9    32    1
    23     9    33    1
    24    10    12    1
    25    10    34    1
    26    10    35    1
    27    11    13    1
    28    11    36    1
    29    11    37    1
    30    12    13    1
    31    12    38    1
    32    13    39    1
    33    13    40    1
    34    14    16    1
    35    14    41    1
    36    14    42    1
    37    15    18    1
    38    15    43    1
    39    15    44    1
    40    16    45    1
    41    16    46    1
    42    17    19   ar
    43    18    47    1
    44    18    48    1
    45    19    20   ar
    46    19    49    1
    47    20    23   ar
    48    20    50    1
    49    21    23   ar
    50    21    51    1
    51    22    24    1
    52    22    52    1
    53    22    53    1
    54    23    54    1
    55    24    25   ar
    56    25    26   ar
    57    26    27   ar
    58    26    55    1
    59    27    56    1
    60    28    57    1
    61    28    58    1
    62    28    59    1
@<TRIPOS>MOLECULE
154925832
 59 62 0 0 0
SMALL
GASTEIGER

@<TRIPOS>ATOM
      1 S           1.8795    0.4506    4.7914 S.2     1  UNL1       -0.0926
      2 O          -3.4780   -1.7041   -1.1056 O.3     1  UNL1       -0.3732
      3 O          -6.8095   -1.7965    1.6320 O.3     1  UNL1       -0.3917
      4 O           2.5619    3.8984    3.1828 O.3     1  UNL1       -0.4941
      5 N          -0.4848    1.9970   -0.8800 N.ar    1  UNL1       -0.2593
      6 N           0.0578    1.4996    1.9681 N.4     1  UNL1        0.2308
      7 C          -3.5817   -1.0970    0.1878 C.3     1  UNL1        0.0728
      8 C          -1.1415   -0.2325   -0.0614 C.3     1  UNL1        0.0224
      9 C          -2.1927   -0.9539    0.8332 C.3     1  UNL1       -0.0123
     10 C          -4.4808   -2.0092    1.0377 C.3     1  UNL1        0.0024
     11 C          -4.4284    0.1820    0.1498 C.3     1  UNL1       -0.0213
     12 C          -5.9002   -1.7207    0.5465 C.3     1  UNL1        0.0580
     13 C          -5.8625   -0.3127   -0.0491 C.3     1  UNL1       -0.0242
     14 C          -1.1858   -0.9535   -1.4364 C.3     1  UNL1       -0.0181
     15 C           0.2670   -0.4668    0.5390 C.3     1  UNL1       -0.0013
     16 C          -2.5969   -1.0429   -2.0073 C.3     1  UNL1        0.0492
     17 C          -1.3476    1.2945   -0.1120 C.ar    1  UNL1        0.0478
     18 C           0.3478    0.0706    1.9607 C.3     1  UNL1       -0.0325
     19 C          -2.3814    1.8648    0.6132 C.ar    1  UNL1       -0.0398
     20 C          -2.5399    3.2445    0.5458 C.ar    1  UNL1       -0.0586
     21 C          -0.6699    3.3355   -0.9210 C.ar    1  UNL1        0.0279
     22 C           0.1453    2.0406    3.3171 C.3     1  UNL1        0.0021
     23 C          -1.6719    4.0012   -0.2335 C.ar    1  UNL1       -0.0436
     24 C           1.5223    1.8694    3.9015 C.ar    1  UNL1        0.0756
     25 C           2.6027    2.7212    3.8313 C.ar    1  UNL1        0.1353
     26 C           3.7385    2.2023    4.5169 C.ar    1  UNL1       -0.0124
     27 C           3.4832    0.9736    5.0852 C.ar    1  UNL1       -0.0203
     28 C           1.3304    4.2645    2.5448 C.3     1  UNL1        0.0788
     29 H          -6.8125   -2.6984    1.9889 H       1  UNL1        0.2098
     30 H          -0.8845    1.6510    1.6082 H       1  UNL1        0.2017
     31 H           0.7439    1.9744    1.3814 H       1  UNL1        0.2017
     32 H          -1.8254   -1.9333    1.0585 H       1  UNL1        0.0302
     33 H          -2.3210   -0.3471    1.7051 H       1  UNL1        0.0302
     34 H          -4.3853   -1.7715    2.0766 H       1  UNL1        0.0318
     35 H          -4.2197   -3.0421    0.9381 H       1  UNL1        0.0318
     36 H          -4.1288    0.8097   -0.6633 H       1  UNL1        0.0294
     37 H          -4.3200    0.7679    1.0386 H       1  UNL1        0.0294
     38 H          -6.2264   -2.4315   -0.1837 H       1  UNL1        0.0594
     39 H          -6.1063   -0.3414   -1.0906 H       1  UNL1        0.0291
     40 H          -6.5727    0.3346    0.4216 H       1  UNL1        0.0291
     41 H          -0.8016   -1.9448   -1.3159 H       1  UNL1        0.0296
     42 H          -0.5952   -0.3814   -2.1211 H       1  UNL1        0.0296
     43 H           0.9935    0.0336   -0.0665 H       1  UNL1        0.0326
     44 H           0.4588   -1.5192    0.5600 H       1  UNL1        0.0326
     45 H          -2.9625   -0.0540   -2.1899 H       1  UNL1        0.0560
     46 H          -2.5587   -1.6058   -2.9164 H       1  UNL1        0.0560
     47 H          -0.3656   -0.4394    2.5738 H       1  UNL1        0.0814
     48 H           1.3341   -0.0908    2.3428 H       1  UNL1        0.0814
     49 H          -3.0139    1.2836    1.1854 H       1  UNL1        0.0636
     50 H          -3.2987    3.7052    1.0722 H       1  UNL1        0.0619
     51 H          -0.0252    3.8959   -1.5001 H       1  UNL1        0.0829
     52 H          -0.5607    1.5324    3.9403 H       1  UNL1        0.0873
     53 H          -0.0670    3.0882    3.2691 H       1  UNL1        0.0873
     54 H          -1.7708    5.0263   -0.2979 H       1  UNL1        0.0633
     55 H           4.6460    2.6896    4.5804 H       1  UNL1        0.0659
     56 H           4.1768    0.4321    5.6244 H       1  UNL1        0.0694
     57 H           1.4433    5.2177    2.0719 H       1  UNL1        0.0660
     58 H           0.5521    4.3195    3.2769 H       1  UNL1        0.0660
     59 H           1.0772    3.5294    1.8097 H       1  UNL1        0.0660
@<TRIPOS>UNITY_ATOM_ATTR
6 1
charge 1
@<TRIPOS>BOND
     1     1    24   ar
     2     1    27   ar
     3     2    16    1
     4     3    12    1
     5     3    29    1
     6     4    25    1
     7     4    28    1
     8     5    17   ar
     9     5    21   ar
    10     6    18    1
    11     6    22    1
    12     6    30    1
    13     6    31    1
    14     7     2    1
    15     7     9    1
    16     7    10    1
    17     7    11    1
    18     8     9    1
    19     8    14    1
    20     8    15    1
    21     8    17    1
    22     9    32    1
    23     9    33    1
    24    10    12    1
    25    10    34    1
    26    10    35    1
    27    11    13    1
    28    11    36    1
    29    11    37    1
    30    12    13    1
    31    12    38    1
    32    13    39    1
    33    13    40    1
    34    14    16    1
    35    14    41    1
    36    14    42    1
    37    15    18    1
    38    15    43    1
    39    15    44    1
    40    16    45    1
    41    16    46    1
    42    17    19   ar
    43    18    47    1
    44    18    48    1
    45    19    20   ar
    46    19    49    1
    47    20    23   ar
    48    20    50    1
    49    21    23   ar
    50    21    51    1
    51    22    24    1
    52    22    52    1
    53    22    53    1
    54    23    54    1
    55    24    25   ar
    56    25    26   ar
    57    26    27   ar
    58    26    55    1
    59    27    56    1
    60    28    57    1
    61    28    58    1
    62    28    59    1
@<TRIPOS>MOLECULE
154925832
 59 62 0 0 0
SMALL
GASTEIGER

@<TRIPOS>ATOM
      1 S           5.3637   -1.0728    0.8962 S.2     1  UNL1       -0.0926
      2 O          -3.4780   -1.7041   -1.1056 O.3     1  UNL1       -0.3732
      3 O          -6.8095   -1.7965    1.6320 O.3     1  UNL1       -0.3917
      4 O           6.1781    2.4230   -0.5380 O.3     1  UNL1       -0.4941
      5 N          -0.4848    1.9970   -0.8800 N.ar    1  UNL1       -0.2593
      6 N           2.6511   -0.0149    0.2847 N.4     1  UNL1        0.2308
      7 C          -3.5817   -1.0970    0.1878 C.3     1  UNL1        0.0728
      8 C          -1.1415   -0.2325   -0.0614 C.3     1  UNL1        0.0224
      9 C          -2.1927   -0.9539    0.8332 C.3     1  UNL1       -0.0123
     10 C          -4.4808   -2.0092    1.0377 C.3     1  UNL1        0.0024
     11 C          -4.4284    0.1820    0.1498 C.3     1  UNL1       -0.0213
     12 C          -5.9002   -1.7207    0.5465 C.3     1  UNL1        0.0580
     13 C          -5.8625   -0.3127   -0.0491 C.3     1  UNL1       -0.0242
     14 C          -1.1858   -0.9535   -1.4364 C.3     1  UNL1       -0.0181
     15 C           0.2670   -0.4668    0.5390 C.3     1  UNL1       -0.0013
     16 C          -2.5969   -1.0429   -2.0073 C.3     1  UNL1        0.0492
     17 C          -1.3476    1.2945   -0.1120 C.ar    1  UNL1        0.0478
     18 C           1.3342    0.2337   -0.2898 C.3     1  UNL1       -0.0325
     19 C          -2.3814    1.8648    0.6132 C.ar    1  UNL1       -0.0398
     20 C          -2.5399    3.2445    0.5458 C.ar    1  UNL1       -0.0586
     21 C          -0.6699    3.3355   -0.9210 C.ar    1  UNL1        0.0279
     22 C           3.6886    0.6598   -0.4825 C.3     1  UNL1        0.0021
     23 C          -1.6719    4.0012   -0.2335 C.ar    1  UNL1       -0.0436
     24 C           5.0602    0.4032    0.0828 C.ar    1  UNL1        0.0756
     25 C           6.1741    1.2132    0.0490 C.ar    1  UNL1        0.1353
     26 C           7.2911    0.6141    0.6991 C.ar    1  UNL1       -0.0124
     27 C           6.9888   -0.6309    1.2053 C.ar    1  UNL1       -0.0203
     28 C           7.0551    3.4217    0.0018 C.3     1  UNL1        0.0788
     29 H          -6.8125   -2.6984    1.9889 H       1  UNL1        0.2098
     30 H           2.8328   -1.0186    0.2815 H       1  UNL1        0.2017
     31 H           2.6641    0.3464    1.2385 H       1  UNL1        0.2017
     32 H          -1.8254   -1.9333    1.0585 H       1  UNL1        0.0302
     33 H          -2.3210   -0.3471    1.7051 H       1  UNL1        0.0302
     34 H          -4.3853   -1.7715    2.0766 H       1  UNL1        0.0318
     35 H          -4.2197   -3.0421    0.9381 H       1  UNL1        0.0318
     36 H          -4.1288    0.8097   -0.6633 H       1  UNL1        0.0294
     37 H          -4.3200    0.7679    1.0386 H       1  UNL1        0.0294
     38 H          -6.2264   -2.4315   -0.1837 H       1  UNL1        0.0594
     39 H          -6.1063   -0.3414   -1.0906 H       1  UNL1        0.0291
     40 H          -6.5727    0.3346    0.4216 H       1  UNL1        0.0291
     41 H          -0.8016   -1.9448   -1.3159 H       1  UNL1        0.0296
     42 H          -0.5952   -0.3814   -2.1211 H       1  UNL1        0.0296
     43 H           0.4702   -1.5172    0.5562 H       1  UNL1        0.0326
     44 H           0.2867   -0.0660    1.5309 H       1  UNL1        0.0326
     45 H          -2.9625   -0.0540   -2.1899 H       1  UNL1        0.0560
     46 H          -2.5587   -1.6058   -2.9164 H       1  UNL1        0.0560
     47 H           1.3078   -0.1407   -1.2918 H       1  UNL1        0.0814
     48 H           1.1438    1.2866   -0.2920 H       1  UNL1        0.0814
     49 H          -3.0139    1.2836    1.1854 H       1  UNL1        0.0636
     50 H          -3.2987    3.7052    1.0722 H       1  UNL1        0.0619
     51 H          -0.0252    3.8959   -1.5001 H       1  UNL1        0.0829
     52 H           3.4999    1.7129   -0.4683 H       1  UNL1        0.0873
     53 H           3.6643    0.2774   -1.4815 H       1  UNL1        0.0873
     54 H          -1.7708    5.0263   -0.2979 H       1  UNL1        0.0633
     55 H           8.2179    1.0605    0.7813 H       1  UNL1        0.0659
     56 H           7.6624   -1.2270    1.7112 H       1  UNL1        0.0694
     57 H           6.9535    4.3268   -0.5600 H       1  UNL1        0.0660
     58 H           8.0664    3.0773   -0.0565 H       1  UNL1        0.0660
     59 H           6.7994    3.6060    1.0243 H       1  UNL1        0.0660
@<TRIPOS>UNITY_ATOM_ATTR
6 1
charge 1
@<TRIPOS>BOND
     1     1    24   ar
     2     1    27   ar
     3     2    16    1
     4     3    12    1
     5     3    29    1
     6     4    25    1
     7     4    28    1
     8     5    17   ar
     9     5    21   ar
    10     6    18    1
    11     6    22    1
    12     6    30    1
    13     6    31    1
    14     7     2    1
    15     7     9    1
    16     7    10    1
    17     7    11    1
    18     8     9    1
    19     8    14    1
    20     8    15    1
    21     8    17    1
    22     9    32    1
    23     9    33    1
    24    10    12    1
    25    10    34    1
    26    10    35    1
    27    11    13    1
    28    11    36    1
    29    11    37    1
    30    12    13    1
    31    12    38    1
    32    13    39    1
    33    13    40    1
    34    14    16    1
    35    14    41    1
    36    14    42    1
    37    15    18    1
    38    15    43    1
    39    15    44    1
    40    16    45    1
    41    16    46    1
    42    17    19   ar
    43    18    47    1
    44    18    48    1
    45    19    20   ar
    46    19    49    1
    47    20    23   ar
    48    20    50    1
    49    21    23   ar
    50    21    51    1
    51    22    24    1
    52    22    52    1
    53    22    53    1
    54    23    54    1
    55    24    25   ar
    56    25    26   ar
    57    26    27   ar
    58    26    55    1
    59    27    56    1
    60    28    57    1
    61    28    58    1
    62    28    59    1
@<TRIPOS>MOLECULE
154925832
 59 62 0 0 0
SMALL
GASTEIGER

@<TRIPOS>ATOM
      1 S           1.8795    0.4506    4.7914 S.2     1  UNL1       -0.0926
      2 O          -3.4780   -1.7041   -1.1056 O.3     1  UNL1       -0.3732
      3 O          -6.8095   -1.7965    1.6320 O.3     1  UNL1       -0.3917
      4 O           2.5619    3.8984    3.1828 O.3     1  UNL1       -0.4941
      5 N          -2.3814    1.7902    0.6045 N.ar    1  UNL1       -0.2593
      6 N           0.0578    1.4996    1.9681 N.4     1  UNL1        0.2308
      7 C          -3.5817   -1.0970    0.1878 C.3     1  UNL1        0.0728
      8 C          -1.1415   -0.2325   -0.0614 C.3     1  UNL1        0.0224
      9 C          -2.1927   -0.9539    0.8332 C.3     1  UNL1       -0.0123
     10 C          -4.4808   -2.0092    1.0377 C.3     1  UNL1        0.0024
     11 C          -4.4284    0.1820    0.1498 C.3     1  UNL1       -0.0213
     12 C          -5.9002   -1.7207    0.5465 C.3     1  UNL1        0.0580
     13 C          -5.8625   -0.3127   -0.0491 C.3     1  UNL1       -0.0242
     14 C          -1.1858   -0.9535   -1.4364 C.3     1  UNL1       -0.0181
     15 C           0.2670   -0.4668    0.5390 C.3     1  UNL1       -0.0013
     16 C          -2.5969   -1.0429   -2.0073 C.3     1  UNL1        0.0492
     17 C          -1.3476    1.2945   -0.1120 C.ar    1  UNL1        0.0478
     18 C           0.3478    0.0706    1.9607 C.3     1  UNL1       -0.0325
     19 C          -0.4864    2.0714   -0.8701 C.ar    1  UNL1       -0.0398
     20 C          -0.6998    3.4452   -0.8943 C.ar    1  UNL1       -0.0586
     21 C          -2.5576    3.1296    0.5569 C.ar    1  UNL1        0.0279
     22 C           0.1453    2.0406    3.3171 C.3     1  UNL1        0.0021
     23 C          -1.7531    3.9923   -0.1700 C.ar    1  UNL1       -0.0436
     24 C           1.5223    1.8694    3.9015 C.ar    1  UNL1        0.0756
     25 C           2.6027    2.7212    3.8313 C.ar    1  UNL1        0.1353
     26 C           3.7385    2.2023    4.5169 C.ar    1  UNL1       -0.0124
     27 C           3.4832    0.9736    5.0852 C.ar    1  UNL1       -0.0203
     28 C           3.7802    4.3776    2.5961 C.3     1  UNL1        0.0788
     29 H          -6.8125   -2.6984    1.9889 H       1  UNL1        0.2098
     30 H          -0.8845    1.6510    1.6082 H       1  UNL1        0.2017
     31 H           0.7439    1.9744    1.3814 H       1  UNL1        0.2017
     32 H          -1.8254   -1.9333    1.0585 H       1  UNL1        0.0302
     33 H          -2.3210   -0.3471    1.7051 H       1  UNL1        0.0302
     34 H          -4.3853   -1.7715    2.0766 H       1  UNL1        0.0318
     35 H          -4.2197   -3.0421    0.9381 H       1  UNL1        0.0318
     36 H          -4.1288    0.8097   -0.6633 H       1  UNL1        0.0294
     37 H          -4.3200    0.7679    1.0386 H       1  UNL1        0.0294
     38 H          -6.2264   -2.4315   -0.1837 H       1  UNL1        0.0594
     39 H          -6.1063   -0.3414   -1.0906 H       1  UNL1        0.0291
     40 H          -6.5727    0.3346    0.4216 H       1  UNL1        0.0291
     41 H          -0.8016   -1.9448   -1.3159 H       1  UNL1        0.0296
     42 H          -0.5952   -0.3814   -2.1211 H       1  UNL1        0.0296
     43 H           0.9935    0.0336   -0.0665 H       1  UNL1        0.0326
     44 H           0.4588   -1.5192    0.5600 H       1  UNL1        0.0326
     45 H          -2.9625   -0.0540   -2.1899 H       1  UNL1        0.0560
     46 H          -2.5587   -1.6058   -2.9164 H       1  UNL1        0.0560
     47 H          -0.3656   -0.4394    2.5738 H       1  UNL1        0.0814
     48 H           1.3341   -0.0908    2.3428 H       1  UNL1        0.0814
     49 H           0.2891    1.6438   -1.4000 H       1  UNL1        0.0636
     50 H          -0.0789    4.0563   -1.4475 H       1  UNL1        0.0619
     51 H          -3.3396    3.5346    1.0950 H       1  UNL1        0.0829
     52 H          -0.5607    1.5324    3.9403 H       1  UNL1        0.0873
     53 H          -0.0670    3.0882    3.2691 H       1  UNL1        0.0873
     54 H          -1.9302    5.0089   -0.1738 H       1  UNL1        0.0633
     55 H           4.6460    2.6896    4.5804 H       1  UNL1        0.0659
     56 H           4.1768    0.4321    5.6244 H       1  UNL1        0.0694
     57 H           3.5998    5.3173    2.1170 H       1  UNL1        0.0660
     58 H           4.1304    3.6703    1.8736 H       1  UNL1        0.0660
     59 H           4.5189    4.5027    3.3599 H       1  UNL1        0.0660
@<TRIPOS>UNITY_ATOM_ATTR
6 1
charge 1
@<TRIPOS>BOND
     1     1    24   ar
     2     1    27   ar
     3     2    16    1
     4     3    12    1
     5     3    29    1
     6     4    25    1
     7     4    28    1
     8     5    17   ar
     9     5    21   ar
    10     6    18    1
    11     6    22    1
    12     6    30    1
    13     6    31    1
    14     7     2    1
    15     7     9    1
    16     7    10    1
    17     7    11    1
    18     8     9    1
    19     8    14    1
    20     8    15    1
    21     8    17    1
    22     9    32    1
    23     9    33    1
    24    10    12    1
    25    10    34    1
    26    10    35    1
    27    11    13    1
    28    11    36    1
    29    11    37    1
    30    12    13    1
    31    12    38    1
    32    13    39    1
    33    13    40    1
    34    14    16    1
    35    14    41    1
    36    14    42    1
    37    15    18    1
    38    15    43    1
    39    15    44    1
    40    16    45    1
    41    16    46    1
    42    17    19   ar
    43    18    47    1
    44    18    48    1
    45    19    20   ar
    46    19    49    1
    47    20    23   ar
    48    20    50    1
    49    21    23   ar
    50    21    51    1
    51    22    24    1
    52    22    52    1
    53    22    53    1
    54    23    54    1
    55    24    25   ar
    56    25    26   ar
    57    26    27   ar
    58    26    55    1
    59    27    56    1
    60    28    57    1
    61    28    58    1
    62    28    59    1
@<TRIPOS>MOLECULE
154925832
 59 62 0 0 0
SMALL
GASTEIGER

@<TRIPOS>ATOM
      1 S           2.4783    0.5379    3.4059 S.2     1  UNL1       -0.0926
      2 O          -3.4780   -1.7041   -1.1056 O.3     1  UNL1       -0.3732
      3 O          -6.8095   -1.7965    1.6320 O.3     1  UNL1       -0.3917
      4 O           1.6215    3.7617    5.3588 O.3     1  UNL1       -0.4941
      5 N          -2.3814    1.7902    0.6045 N.ar    1  UNL1       -0.2593
      6 N           0.0578    1.4996    1.9681 N.4     1  UNL1        0.2308
      7 C          -3.5817   -1.0970    0.1878 C.3     1  UNL1        0.0728
      8 C          -1.1415   -0.2325   -0.0614 C.3     1  UNL1        0.0224
      9 C          -2.1927   -0.9539    0.8332 C.3     1  UNL1       -0.0123
     10 C          -4.4808   -2.0092    1.0377 C.3     1  UNL1        0.0024
     11 C          -4.4284    0.1820    0.1498 C.3     1  UNL1       -0.0213
     12 C          -5.9002   -1.7207    0.5465 C.3     1  UNL1        0.0580
     13 C          -5.8625   -0.3127   -0.0491 C.3     1  UNL1       -0.0242
     14 C          -1.1858   -0.9535   -1.4364 C.3     1  UNL1       -0.0181
     15 C           0.2670   -0.4668    0.5390 C.3     1  UNL1       -0.0013
     16 C          -2.5969   -1.0429   -2.0073 C.3     1  UNL1        0.0492
     17 C          -1.3476    1.2945   -0.1120 C.ar    1  UNL1        0.0478
     18 C           0.3478    0.0706    1.9607 C.3     1  UNL1       -0.0325
     19 C          -0.4864    2.0714   -0.8701 C.ar    1  UNL1       -0.0398
     20 C          -0.6998    3.4452   -0.8943 C.ar    1  UNL1       -0.0586
     21 C          -2.5576    3.1296    0.5569 C.ar    1  UNL1        0.0279
     22 C           0.1453    2.0406    3.3171 C.3     1  UNL1        0.0021
     23 C          -1.7531    3.9923   -0.1700 C.ar    1  UNL1       -0.0436
     24 C           1.5223    1.8694    3.9015 C.ar    1  UNL1        0.0756
     25 C           2.1731    2.6577    4.8250 C.ar    1  UNL1        0.1353
     26 C           3.4735    2.1622    5.1295 C.ar    1  UNL1       -0.0124
     27 C           3.7674    1.0139    4.4273 C.ar    1  UNL1       -0.0203
     28 C           2.5021    4.8282    5.7396 C.3     1  UNL1        0.0788
     29 H          -6.8125   -2.6984    1.9889 H       1  UNL1        0.2098
     30 H          -0.8845    1.6510    1.6082 H       1  UNL1        0.2017
     31 H           0.7439    1.9744    1.3814 H       1  UNL1        0.2017
     32 H          -1.8254   -1.9333    1.0585 H       1  UNL1        0.0302
     33 H          -2.3210   -0.3471    1.7051 H       1  UNL1        0.0302
     34 H          -4.3853   -1.7715    2.0766 H       1  UNL1        0.0318
     35 H          -4.2197   -3.0421    0.9381 H       1  UNL1        0.0318
     36 H          -4.1288    0.8097   -0.6633 H       1  UNL1        0.0294
     37 H          -4.3200    0.7679    1.0386 H       1  UNL1        0.0294
     38 H          -6.2264   -2.4315   -0.1837 H       1  UNL1        0.0594
     39 H          -6.1063   -0.3414   -1.0906 H       1  UNL1        0.0291
     40 H          -6.5727    0.3346    0.4216 H       1  UNL1        0.0291
     41 H          -0.8016   -1.9448   -1.3159 H       1  UNL1        0.0296
     42 H          -0.5952   -0.3814   -2.1211 H       1  UNL1        0.0296
     43 H           0.9935    0.0336   -0.0665 H       1  UNL1        0.0326
     44 H           0.4588   -1.5192    0.5600 H       1  UNL1        0.0326
     45 H          -2.9625   -0.0540   -2.1899 H       1  UNL1        0.0560
     46 H          -2.5587   -1.6058   -2.9164 H       1  UNL1        0.0560
     47 H          -0.3656   -0.4394    2.5738 H       1  UNL1        0.0814
     48 H           1.3341   -0.0908    2.3428 H       1  UNL1        0.0814
     49 H           0.2891    1.6438   -1.4000 H       1  UNL1        0.0636
     50 H          -0.0789    4.0563   -1.4475 H       1  UNL1        0.0619
     51 H          -3.3396    3.5346    1.0950 H       1  UNL1        0.0829
     52 H          -0.5607    1.5324    3.9403 H       1  UNL1        0.0873
     53 H          -0.0670    3.0882    3.2691 H       1  UNL1        0.0873
     54 H          -1.9302    5.0089   -0.1738 H       1  UNL1        0.0633
     55 H           4.1196    2.6107    5.7976 H       1  UNL1        0.0659
     56 H           4.6594    0.5011    4.5075 H       1  UNL1        0.0694
     57 H           1.9295    5.6356    6.1461 H       1  UNL1        0.0660
     58 H           3.0407    5.1699    4.8806 H       1  UNL1        0.0660
     59 H           3.1930    4.4745    6.4762 H       1  UNL1        0.0660
@<TRIPOS>UNITY_ATOM_ATTR
6 1
charge 1
@<TRIPOS>BOND
     1     1    24   ar
     2     1    27   ar
     3     2    16    1
     4     3    12    1
     5     3    29    1
     6     4    25    1
     7     4    28    1
     8     5    17   ar
     9     5    21   ar
    10     6    18    1
    11     6    22    1
    12     6    30    1
    13     6    31    1
    14     7     2    1
    15     7     9    1
    16     7    10    1
    17     7    11    1
    18     8     9    1
    19     8    14    1
    20     8    15    1
    21     8    17    1
    22     9    32    1
    23     9    33    1
    24    10    12    1
    25    10    34    1
    26    10    35    1
    27    11    13    1
    28    11    36    1
    29    11    37    1
    30    12    13    1
    31    12    38    1
    32    13    39    1
    33    13    40    1
    34    14    16    1
    35    14    41    1
    36    14    42    1
    37    15    18    1
    38    15    43    1
    39    15    44    1
    40    16    45    1
    41    16    46    1
    42    17    19   ar
    43    18    47    1
    44    18    48    1
    45    19    20   ar
    46    19    49    1
    47    20    23   ar
    48    20    50    1
    49    21    23   ar
    50    21    51    1
    51    22    24    1
    52    22    52    1
    53    22    53    1
    54    23    54    1
    55    24    25   ar
    56    25    26   ar
    57    26    27   ar
    58    26    55    1
    59    27    56    1
    60    28    57    1
    61    28    58    1
    62    28    59    1
@<TRIPOS>MOLECULE
154925832
 59 62 0 0 0
SMALL
GASTEIGER

@<TRIPOS>ATOM
      1 S           4.9896   -1.0002    1.6341 S.2     1  UNL1       -0.0926
      2 O          -3.4780   -1.7041   -1.1056 O.3     1  UNL1       -0.3732
      3 O          -6.8095   -1.7965    1.6320 O.3     1  UNL1       -0.3917
      4 O           4.2661    2.1440    3.7627 O.3     1  UNL1       -0.4941
      5 N          -1.8975    1.8680    0.9819 N.ar    1  UNL1       -0.2593
      6 N           1.6860   -0.1462    2.4978 N.4     1  UNL1        0.2308
      7 C          -3.5817   -1.0970    0.1878 C.3     1  UNL1        0.0728
      8 C          -1.1415   -0.2325   -0.0614 C.3     1  UNL1        0.0224
      9 C          -2.1927   -0.9539    0.8332 C.3     1  UNL1       -0.0123
     10 C          -4.4808   -2.0092    1.0377 C.3     1  UNL1        0.0024
     11 C          -4.4284    0.1820    0.1498 C.3     1  UNL1       -0.0213
     12 C          -5.9002   -1.7207    0.5465 C.3     1  UNL1        0.0580
     13 C          -5.8625   -0.3127   -0.0491 C.3     1  UNL1       -0.0242
     14 C          -1.1858   -0.9535   -1.4364 C.3     1  UNL1       -0.0181
     15 C           0.2670   -0.4668    0.5390 C.3     1  UNL1       -0.0013
     16 C          -2.5969   -1.0429   -2.0073 C.3     1  UNL1        0.0492
     17 C          -1.3476    1.2945   -0.1120 C.ar    1  UNL1        0.0478
     18 C           0.3478    0.0706    1.9607 C.3     1  UNL1       -0.0325
     19 C          -0.9698    1.9936   -1.2471 C.ar    1  UNL1       -0.0398
     20 C          -1.1692    3.3697   -1.2603 C.ar    1  UNL1       -0.0586
     21 C          -2.0760    3.2071    0.9324 C.ar    1  UNL1        0.0279
     22 C           2.6856    0.5476    1.6980 C.3     1  UNL1        0.0021
     23 C          -1.7324    3.9956   -0.1539 C.ar    1  UNL1       -0.0436
     24 C           4.0783    0.3240    2.2243 C.ar    1  UNL1        0.0756
     25 C           4.7766    1.0562    3.1593 C.ar    1  UNL1        0.1353
     26 C           6.0766    0.5232    3.3940 C.ar    1  UNL1       -0.0124
     27 C           6.3229   -0.5962    2.6296 C.ar    1  UNL1       -0.0203
     28 C           5.1806    3.1752    4.1606 C.3     1  UNL1        0.0788
     29 H          -6.8125   -2.6984    1.9889 H       1  UNL1        0.2098
     30 H           1.8897   -1.1457    2.4933 H       1  UNL1        0.2017
     31 H           1.7184    0.2198    3.4493 H       1  UNL1        0.2017
     32 H          -1.8254   -1.9333    1.0585 H       1  UNL1        0.0302
     33 H          -2.3210   -0.3471    1.7051 H       1  UNL1        0.0302
     34 H          -4.3853   -1.7715    2.0766 H       1  UNL1        0.0318
     35 H          -4.2197   -3.0421    0.9381 H       1  UNL1        0.0318
     36 H          -4.1288    0.8097   -0.6633 H       1  UNL1        0.0294
     37 H          -4.3200    0.7679    1.0386 H       1  UNL1        0.0294
     38 H          -6.2264   -2.4315   -0.1837 H       1  UNL1        0.0594
     39 H          -6.1063   -0.3414   -1.0906 H       1  UNL1        0.0291
     40 H          -6.5727    0.3346    0.4216 H       1  UNL1        0.0291
     41 H          -0.8016   -1.9448   -1.3159 H       1  UNL1        0.0296
     42 H          -0.5952   -0.3814   -2.1211 H       1  UNL1        0.0296
     43 H           0.9935    0.0336   -0.0665 H       1  UNL1        0.0326
     44 H           0.4588   -1.5192    0.5600 H       1  UNL1        0.0326
     45 H          -2.9625   -0.0540   -2.1899 H       1  UNL1        0.0560
     46 H          -2.5587   -1.6058   -2.9164 H       1  UNL1        0.0560
     47 H           0.1326    1.1188    1.9565 H       1  UNL1        0.0814
     48 H          -0.3647   -0.4424    2.5723 H       1  UNL1        0.0814
     49 H          -0.5535    1.5083   -2.0572 H       1  UNL1        0.0636
     50 H          -0.9002    3.9242   -2.0881 H       1  UNL1        0.0619
     51 H          -2.4939    3.6706    1.7543 H       1  UNL1        0.0829
     52 H           2.4740    1.5964    1.7134 H       1  UNL1        0.0873
     53 H           2.6410    0.1600    0.7017 H       1  UNL1        0.0873
     54 H          -1.8897    5.0155   -0.1421 H       1  UNL1        0.0633
     55 H           6.7544    0.9281    4.0586 H       1  UNL1        0.0659
     56 H           7.2066   -1.1285    2.6542 H       1  UNL1        0.0694
     57 H           4.6388    3.9731    4.6240 H       1  UNL1        0.0660
     58 H           5.6957    3.5467    3.2995 H       1  UNL1        0.0660
     59 H           5.8895    2.7749    4.8550 H       1  UNL1        0.0660
@<TRIPOS>UNITY_ATOM_ATTR
6 1
charge 1
@<TRIPOS>BOND
     1     1    24   ar
     2     1    27   ar
     3     2    16    1
     4     3    12    1
     5     3    29    1
     6     4    25    1
     7     4    28    1
     8     5    17   ar
     9     5    21   ar
    10     6    18    1
    11     6    22    1
    12     6    30    1
    13     6    31    1
    14     7     2    1
    15     7     9    1
    16     7    10    1
    17     7    11    1
    18     8     9    1
    19     8    14    1
    20     8    15    1
    21     8    17    1
    22     9    32    1
    23     9    33    1
    24    10    12    1
    25    10    34    1
    26    10    35    1
    27    11    13    1
    28    11    36    1
    29    11    37    1
    30    12    13    1
    31    12    38    1
    32    13    39    1
    33    13    40    1
    34    14    16    1
    35    14    41    1
    36    14    42    1
    37    15    18    1
    38    15    43    1
    39    15    44    1
    40    16    45    1
    41    16    46    1
    42    17    19   ar
    43    18    47    1
    44    18    48    1
    45    19    20   ar
    46    19    49    1
    47    20    23   ar
    48    20    50    1
    49    21    23   ar
    50    21    51    1
    51    22    24    1
    52    22    52    1
    53    22    53    1
    54    23    54    1
    55    24    25   ar
    56    25    26   ar
    57    26    27   ar
    58    26    55    1
    59    27    56    1
    60    28    57    1
    61    28    58    1
    62    28    59    1
@<TRIPOS>MOLECULE
154925832
 59 62 0 0 0
SMALL
GASTEIGER

@<TRIPOS>ATOM
      1 S           3.2748    2.9473   -2.0004 S.2     1  UNL1       -0.0926
      2 O          -3.4780   -1.7041   -1.1056 O.3     1  UNL1       -0.3732
      3 O          -6.8095   -1.7965    1.6320 O.3     1  UNL1       -0.3917
      4 O           3.6046    2.6388    1.8384 O.3     1  UNL1       -0.4941
      5 N          -0.6967    2.0248    0.8212 N.ar    1  UNL1       -0.2593
      6 N           2.6511   -0.0149    0.2847 N.4     1  UNL1        0.2308
      7 C          -3.5817   -1.0970    0.1878 C.3     1  UNL1        0.0728
      8 C          -1.1415   -0.2325   -0.0614 C.3     1  UNL1        0.0224
      9 C          -2.1927   -0.9539    0.8332 C.3     1  UNL1       -0.0123
     10 C          -4.4808   -2.0092    1.0377 C.3     1  UNL1        0.0024
     11 C          -4.4284    0.1820    0.1498 C.3     1  UNL1       -0.0213
     12 C          -5.9002   -1.7207    0.5465 C.3     1  UNL1        0.0580
     13 C          -5.8625   -0.3127   -0.0491 C.3     1  UNL1       -0.0242
     14 C          -1.1858   -0.9535   -1.4364 C.3     1  UNL1       -0.0181
     15 C           0.2670   -0.4668    0.5390 C.3     1  UNL1       -0.0013
     16 C          -2.5969   -1.0429   -2.0073 C.3     1  UNL1        0.0492
     17 C          -1.3476    1.2945   -0.1120 C.ar    1  UNL1        0.0478
     18 C           1.3342    0.2337   -0.2898 C.3     1  UNL1       -0.0325
     19 C          -2.1696    1.8370   -1.0866 C.ar    1  UNL1       -0.0398
     20 C          -2.3341    3.2176   -1.1046 C.ar    1  UNL1       -0.0586
     21 C          -0.8807    3.3631    0.7724 C.ar    1  UNL1        0.0279
     22 C           3.6886    0.6598   -0.4825 C.3     1  UNL1        0.0021
     23 C          -1.6810    4.0023   -0.1607 C.ar    1  UNL1       -0.0436
     24 C           3.4921    2.1524   -0.4994 C.ar    1  UNL1        0.0756
     25 C           3.4582    3.0315    0.5607 C.ar    1  UNL1        0.1353
     26 C           3.2509    4.3750    0.1351 C.ar    1  UNL1       -0.0124
     27 C           3.1344    4.4721   -1.2341 C.ar    1  UNL1       -0.0203
     28 C           4.2015    3.5664    2.7556 C.3     1  UNL1        0.0788
     29 H          -6.8125   -2.6984    1.9889 H       1  UNL1        0.2098
     30 H           2.8328   -1.0186    0.2815 H       1  UNL1        0.2017
     31 H           2.6641    0.3464    1.2385 H       1  UNL1        0.2017
     32 H          -1.8254   -1.9333    1.0585 H       1  UNL1        0.0302
     33 H          -2.3210   -0.3471    1.7051 H       1  UNL1        0.0302
     34 H          -4.3853   -1.7715    2.0766 H       1  UNL1        0.0318
     35 H          -4.2197   -3.0421    0.9381 H       1  UNL1        0.0318
     36 H          -4.1288    0.8097   -0.6633 H       1  UNL1        0.0294
     37 H          -4.3200    0.7679    1.0386 H       1  UNL1        0.0294
     38 H          -6.2264   -2.4315   -0.1837 H       1  UNL1        0.0594
     39 H          -6.1063   -0.3414   -1.0906 H       1  UNL1        0.0291
     40 H          -6.5727    0.3346    0.4216 H       1  UNL1        0.0291
     41 H          -0.8016   -1.9448   -1.3159 H       1  UNL1        0.0296
     42 H          -0.5952   -0.3814   -2.1211 H       1  UNL1        0.0296
     43 H           0.4702   -1.5172    0.5562 H       1  UNL1        0.0326
     44 H           0.2867   -0.0660    1.5309 H       1  UNL1        0.0326
     45 H          -2.9625   -0.0540   -2.1899 H       1  UNL1        0.0560
     46 H          -2.5587   -1.6058   -2.9164 H       1  UNL1        0.0560
     47 H           1.3078   -0.1407   -1.2918 H       1  UNL1        0.0814
     48 H           1.1438    1.2866   -0.2920 H       1  UNL1        0.0814
     49 H          -2.6448    1.2353   -1.7775 H       1  UNL1        0.0636
     50 H          -2.9386    3.6581   -1.8157 H       1  UNL1        0.0619
     51 H          -0.3952    3.9445    1.4733 H       1  UNL1        0.0829
     52 H           3.6666    0.2964   -1.4887 H       1  UNL1        0.0873
     53 H           4.6309    0.4542   -0.0190 H       1  UNL1        0.0873
     54 H          -1.7889    5.0286   -0.1553 H       1  UNL1        0.0633
     55 H           3.1946    5.1811    0.7771 H       1  UNL1        0.0659
     56 H           2.9806    5.3592   -1.7385 H       1  UNL1        0.0694
     57 H           4.2541    3.1227    3.7279 H       1  UNL1        0.0660
     58 H           3.6077    4.4552    2.8008 H       1  UNL1        0.0660
     59 H           5.1879    3.8130    2.4222 H       1  UNL1        0.0660
@<TRIPOS>UNITY_ATOM_ATTR
6 1
charge 1
@<TRIPOS>BOND
     1     1    24   ar
     2     1    27   ar
     3     2    16    1
     4     3    12    1
     5     3    29    1
     6     4    25    1
     7     4    28    1
     8     5    17   ar
     9     5    21   ar
    10     6    18    1
    11     6    22    1
    12     6    30    1
    13     6    31    1
    14     7     2    1
    15     7     9    1
    16     7    10    1
    17     7    11    1
    18     8     9    1
    19     8    14    1
    20     8    15    1
    21     8    17    1
    22     9    32    1
    23     9    33    1
    24    10    12    1
    25    10    34    1
    26    10    35    1
    27    11    13    1
    28    11    36    1
    29    11    37    1
    30    12    13    1
    31    12    38    1
    32    13    39    1
    33    13    40    1
    34    14    16    1
    35    14    41    1
    36    14    42    1
    37    15    18    1
    38    15    43    1
    39    15    44    1
    40    16    45    1
    41    16    46    1
    42    17    19   ar
    43    18    47    1
    44    18    48    1
    45    19    20   ar
    46    19    49    1
    47    20    23   ar
    48    20    50    1
    49    21    23   ar
    50    21    51    1
    51    22    24    1
    52    22    52    1
    53    22    53    1
    54    23    54    1
    55    24    25   ar
    56    25    26   ar
    57    26    27   ar
    58    26    55    1
    59    27    56    1
    60    28    57    1
    61    28    58    1
    62    28    59    1
@<TRIPOS>MOLECULE
154925832
 59 62 0 0 0
SMALL
GASTEIGER

@<TRIPOS>ATOM
      1 S           3.6738   -3.2562    4.0063 S.2     1  UNL1       -0.0926
      2 O          -3.4780   -1.7041   -1.1056 O.3     1  UNL1       -0.3732
      3 O          -6.8095   -1.7965    1.6320 O.3     1  UNL1       -0.3917
      4 O           4.3733    0.2370    2.5068 O.3     1  UNL1       -0.4941
      5 N          -0.9732    1.9188   -1.2513 N.ar    1  UNL1       -0.2593
      6 N           1.9227   -2.1473    1.1614 N.4     1  UNL1        0.2308
      7 C          -3.5817   -1.0970    0.1878 C.3     1  UNL1        0.0728
      8 C          -1.1415   -0.2325   -0.0614 C.3     1  UNL1        0.0224
      9 C          -2.1927   -0.9539    0.8332 C.3     1  UNL1       -0.0123
     10 C          -4.4808   -2.0092    1.0377 C.3     1  UNL1        0.0024
     11 C          -4.4284    0.1820    0.1498 C.3     1  UNL1       -0.0213
     12 C          -5.9002   -1.7207    0.5465 C.3     1  UNL1        0.0580
     13 C          -5.8625   -0.3127   -0.0491 C.3     1  UNL1       -0.0242
     14 C          -1.1858   -0.9535   -1.4364 C.3     1  UNL1       -0.0181
     15 C           0.2670   -0.4668    0.5390 C.3     1  UNL1       -0.0013
     16 C          -2.5969   -1.0429   -2.0073 C.3     1  UNL1        0.0492
     17 C          -1.3476    1.2945   -0.1120 C.ar    1  UNL1        0.0478
     18 C           0.6009   -1.9512    0.5778 C.3     1  UNL1       -0.0325
     19 C          -1.8934    1.9429    0.9841 C.ar    1  UNL1       -0.0398
     20 C          -2.0661    3.3204    0.9060 C.ar    1  UNL1       -0.0586
     21 C          -1.1561    3.2576   -1.2905 C.ar    1  UNL1        0.0279
     22 C           1.9686   -1.6410    2.5258 C.3     1  UNL1        0.0021
     23 C          -1.6928    3.9978   -0.2495 C.ar    1  UNL1       -0.0436
     24 C           3.3302   -1.8174    3.1437 C.ar    1  UNL1        0.0756
     25 C           4.4054   -0.9563    3.1257 C.ar    1  UNL1        0.1353
     26 C           5.5258   -1.4847    3.8291 C.ar    1  UNL1       -0.0124
     27 C           5.2646   -2.7296    4.3581 C.ar    1  UNL1       -0.0203
     28 C           5.1831    1.2898    3.0487 C.3     1  UNL1        0.0788
     29 H          -6.8125   -2.6984    1.9889 H       1  UNL1        0.2098
     30 H           2.6135   -1.6517    0.5979 H       1  UNL1        0.2017
     31 H           2.1268   -3.1466    1.1776 H       1  UNL1        0.2017
     32 H          -1.8254   -1.9333    1.0585 H       1  UNL1        0.0302
     33 H          -2.3210   -0.3471    1.7051 H       1  UNL1        0.0302
     34 H          -4.3853   -1.7715    2.0766 H       1  UNL1        0.0318
     35 H          -4.2197   -3.0421    0.9381 H       1  UNL1        0.0318
     36 H          -4.1288    0.8097   -0.6633 H       1  UNL1        0.0294
     37 H          -4.3200    0.7679    1.0386 H       1  UNL1        0.0294
     38 H          -6.2264   -2.4315   -0.1837 H       1  UNL1        0.0594
     39 H          -6.1063   -0.3414   -1.0906 H       1  UNL1        0.0291
     40 H          -6.5727    0.3346    0.4216 H       1  UNL1        0.0291
     41 H          -0.8016   -1.9448   -1.3159 H       1  UNL1        0.0296
     42 H          -0.5952   -0.3814   -2.1211 H       1  UNL1        0.0296
     43 H           0.2928   -0.0758    1.5346 H       1  UNL1        0.0326
     44 H           0.9878    0.0297   -0.0764 H       1  UNL1        0.0326
     45 H          -2.9625   -0.0540   -2.1899 H       1  UNL1        0.0560
     46 H          -2.5587   -1.6058   -2.9164 H       1  UNL1        0.0560
     47 H          -0.1281   -2.4635    1.1702 H       1  UNL1        0.0814
     48 H           0.5947   -2.3399   -0.4191 H       1  UNL1        0.0814
     49 H          -2.1633    1.4199    1.8319 H       1  UNL1        0.0636
     50 H          -2.4697    3.8380    1.7025 H       1  UNL1        0.0619
     51 H          -0.8790    3.7592   -2.1488 H       1  UNL1        0.0829
     52 H           1.2497   -2.1702    3.1158 H       1  UNL1        0.0873
     53 H           1.7494   -0.5940    2.4989 H       1  UNL1        0.0873
     54 H          -1.8117    5.0198   -0.3292 H       1  UNL1        0.0633
     55 H           6.4273   -0.9927    3.9304 H       1  UNL1        0.0659
     56 H           5.9473   -3.2798    4.9023 H       1  UNL1        0.0694
     57 H           5.0590    2.1745    2.4597 H       1  UNL1        0.0660
     58 H           6.2109    0.9928    3.0340 H       1  UNL1        0.0660
     59 H           4.8835    1.4875    4.0567 H       1  UNL1        0.0660
@<TRIPOS>UNITY_ATOM_ATTR
6 1
charge 1
@<TRIPOS>BOND
     1     1    24   ar
     2     1    27   ar
     3     2    16    1
     4     3    12    1
     5     3    29    1
     6     4    25    1
     7     4    28    1
     8     5    17   ar
     9     5    21   ar
    10     6    18    1
    11     6    22    1
    12     6    30    1
    13     6    31    1
    14     7     2    1
    15     7     9    1
    16     7    10    1
    17     7    11    1
    18     8     9    1
    19     8    14    1
    20     8    15    1
    21     8    17    1
    22     9    32    1
    23     9    33    1
    24    10    12    1
    25    10    34    1
    26    10    35    1
    27    11    13    1
    28    11    36    1
    29    11    37    1
    30    12    13    1
    31    12    38    1
    32    13    39    1
    33    13    40    1
    34    14    16    1
    35    14    41    1
    36    14    42    1
    37    15    18    1
    38    15    43    1
    39    15    44    1
    40    16    45    1
    41    16    46    1
    42    17    19   ar
    43    18    47    1
    44    18    48    1
    45    19    20   ar
    46    19    49    1
    47    20    23   ar
    48    20    50    1
    49    21    23   ar
    50    21    51    1
    51    22    24    1
    52    22    52    1
    53    22    53    1
    54    23    54    1
    55    24    25   ar
    56    25    26   ar
    57    26    27   ar
    58    26    55    1
    59    27    56    1
    60    28    57    1
    61    28    58    1
    62    28    59    1
@<TRIPOS>MOLECULE
154925832
 59 62 0 0 0
SMALL
GASTEIGER

@<TRIPOS>ATOM
      1 S           4.6300   -1.1571    2.5722 S.2     1  UNL1       -0.0926
      2 O          -3.4780   -1.7041   -1.1056 O.3     1  UNL1       -0.3732
      3 O          -6.8095   -1.7965    1.6320 O.3     1  UNL1       -0.3917
      4 O           5.4271   -2.6661   -0.8959 O.3     1  UNL1       -0.4941
      5 N          -0.4848    1.9970   -0.8800 N.ar    1  UNL1       -0.2593
      6 N           1.9227   -2.1473    1.1614 N.4     1  UNL1        0.2308
      7 C          -3.5817   -1.0970    0.1878 C.3     1  UNL1        0.0728
      8 C          -1.1415   -0.2325   -0.0614 C.3     1  UNL1        0.0224
      9 C          -2.1927   -0.9539    0.8332 C.3     1  UNL1       -0.0123
     10 C          -4.4808   -2.0092    1.0377 C.3     1  UNL1        0.0024
     11 C          -4.4284    0.1820    0.1498 C.3     1  UNL1       -0.0213
     12 C          -5.9002   -1.7207    0.5465 C.3     1  UNL1        0.0580
     13 C          -5.8625   -0.3127   -0.0491 C.3     1  UNL1       -0.0242
     14 C          -1.1858   -0.9535   -1.4364 C.3     1  UNL1       -0.0181
     15 C           0.2670   -0.4668    0.5390 C.3     1  UNL1       -0.0013
     16 C          -2.5969   -1.0429   -2.0073 C.3     1  UNL1        0.0492
     17 C          -1.3476    1.2945   -0.1120 C.ar    1  UNL1        0.0478
     18 C           0.6009   -1.9512    0.5778 C.3     1  UNL1       -0.0325
     19 C          -2.3814    1.8648    0.6132 C.ar    1  UNL1       -0.0398
     20 C          -2.5399    3.2445    0.5458 C.ar    1  UNL1       -0.0586
     21 C          -0.6699    3.3355   -0.9210 C.ar    1  UNL1        0.0279
     22 C           2.9408   -1.4501    0.3884 C.3     1  UNL1        0.0021
     23 C          -1.6719    4.0012   -0.2335 C.ar    1  UNL1       -0.0436
     24 C           4.3176   -1.6525    0.9631 C.ar    1  UNL1        0.0756
     25 C           5.4304   -2.2035    0.3666 C.ar    1  UNL1        0.1353
     26 C           6.5541   -2.2192    1.2421 C.ar    1  UNL1       -0.0124
     27 C           6.2576   -1.6797    2.4745 C.ar    1  UNL1       -0.0203
     28 C           4.2021   -2.5708   -1.6364 C.3     1  UNL1        0.0788
     29 H          -6.8125   -2.6984    1.9889 H       1  UNL1        0.2098
     30 H           2.1376   -3.1444    1.1741 H       1  UNL1        0.2017
     31 H           1.9192   -1.7714    2.1097 H       1  UNL1        0.2017
     32 H          -1.8254   -1.9333    1.0585 H       1  UNL1        0.0302
     33 H          -2.3210   -0.3471    1.7051 H       1  UNL1        0.0302
     34 H          -4.3853   -1.7715    2.0766 H       1  UNL1        0.0318
     35 H          -4.2197   -3.0421    0.9381 H       1  UNL1        0.0318
     36 H          -4.1288    0.8097   -0.6633 H       1  UNL1        0.0294
     37 H          -4.3200    0.7679    1.0386 H       1  UNL1        0.0294
     38 H          -6.2264   -2.4315   -0.1837 H       1  UNL1        0.0594
     39 H          -6.1063   -0.3414   -1.0906 H       1  UNL1        0.0291
     40 H          -6.5727    0.3346    0.4216 H       1  UNL1        0.0291
     41 H          -0.8016   -1.9448   -1.3159 H       1  UNL1        0.0296
     42 H          -0.5952   -0.3814   -2.1211 H       1  UNL1        0.0296
     43 H           0.2928   -0.0758    1.5346 H       1  UNL1        0.0326
     44 H           0.9878    0.0297   -0.0764 H       1  UNL1        0.0326
     45 H          -2.9625   -0.0540   -2.1899 H       1  UNL1        0.0560
     46 H          -2.5587   -1.6058   -2.9164 H       1  UNL1        0.0560
     47 H          -0.1281   -2.4635    1.1702 H       1  UNL1        0.0814
     48 H           0.5947   -2.3399   -0.4191 H       1  UNL1        0.0814
     49 H          -3.0139    1.2836    1.1854 H       1  UNL1        0.0636
     50 H          -3.2987    3.7052    1.0722 H       1  UNL1        0.0619
     51 H          -0.0252    3.8959   -1.5001 H       1  UNL1        0.0829
     52 H           2.7172   -0.4037    0.3858 H       1  UNL1        0.0873
     53 H           2.9338   -1.8481   -0.6049 H       1  UNL1        0.0873
     54 H          -1.7708    5.0263   -0.2979 H       1  UNL1        0.0633
     55 H           7.4813   -2.5912    0.9835 H       1  UNL1        0.0659
     56 H           6.9364   -1.5998    3.2476 H       1  UNL1        0.0694
     57 H           4.3459   -2.9741   -2.6171 H       1  UNL1        0.0660
     58 H           3.9101   -1.5443   -1.7122 H       1  UNL1        0.0660
     59 H           3.4367   -3.1231   -1.1324 H       1  UNL1        0.0660
@<TRIPOS>UNITY_ATOM_ATTR
6 1
charge 1
@<TRIPOS>BOND
     1     1    24   ar
     2     1    27   ar
     3     2    16    1
     4     3    12    1
     5     3    29    1
     6     4    25    1
     7     4    28    1
     8     5    17   ar
     9     5    21   ar
    10     6    18    1
    11     6    22    1
    12     6    30    1
    13     6    31    1
    14     7     2    1
    15     7     9    1
    16     7    10    1
    17     7    11    1
    18     8     9    1
    19     8    14    1
    20     8    15    1
    21     8    17    1
    22     9    32    1
    23     9    33    1
    24    10    12    1
    25    10    34    1
    26    10    35    1
    27    11    13    1
    28    11    36    1
    29    11    37    1
    30    12    13    1
    31    12    38    1
    32    13    39    1
    33    13    40    1
    34    14    16    1
    35    14    41    1
    36    14    42    1
    37    15    18    1
    38    15    43    1
    39    15    44    1
    40    16    45    1
    41    16    46    1
    42    17    19   ar
    43    18    47    1
    44    18    48    1
    45    19    20   ar
    46    19    49    1
    47    20    23   ar
    48    20    50    1
    49    21    23   ar
    50    21    51    1
    51    22    24    1
    52    22    52    1
    53    22    53    1
    54    23    54    1
    55    24    25   ar
    56    25    26   ar
    57    26    27   ar
    58    26    55    1
    59    27    56    1
    60    28    57    1
    61    28    58    1
    62    28    59    1
@<TRIPOS>MOLECULE
154925832
 59 62 0 0 0
SMALL
GASTEIGER

@<TRIPOS>ATOM
      1 S          -1.2482    4.1631    2.1941 S.2     1  UNL1       -0.0926
      2 O          -3.4780   -1.7041   -1.1056 O.3     1  UNL1       -0.3732
      3 O          -6.8095   -1.7965    1.6320 O.3     1  UNL1       -0.3917
      4 O           1.1670    4.2032    5.2116 O.3     1  UNL1       -0.4941
      5 N          -2.6158    1.7397    0.0344 N.ar    1  UNL1       -0.2593
      6 N           0.0578    1.4996    1.9681 N.4     1  UNL1        0.2308
      7 C          -3.5817   -1.0970    0.1878 C.3     1  UNL1        0.0728
      8 C          -1.1415   -0.2325   -0.0614 C.3     1  UNL1        0.0224
      9 C          -2.1927   -0.9539    0.8332 C.3     1  UNL1       -0.0123
     10 C          -4.4808   -2.0092    1.0377 C.3     1  UNL1        0.0024
     11 C          -4.4284    0.1820    0.1498 C.3     1  UNL1       -0.0213
     12 C          -5.9002   -1.7207    0.5465 C.3     1  UNL1        0.0580
     13 C          -5.8625   -0.3127   -0.0491 C.3     1  UNL1       -0.0242
     14 C          -1.1858   -0.9535   -1.4364 C.3     1  UNL1       -0.0181
     15 C           0.2670   -0.4668    0.5390 C.3     1  UNL1       -0.0013
     16 C          -2.5969   -1.0429   -2.0073 C.3     1  UNL1        0.0492
     17 C          -1.3476    1.2945   -0.1120 C.ar    1  UNL1        0.0478
     18 C           0.3478    0.0706    1.9607 C.3     1  UNL1       -0.0325
     19 C          -0.2522    2.1219   -0.3004 C.ar    1  UNL1       -0.0398
     20 C          -0.4725    3.4942   -0.3412 C.ar    1  UNL1       -0.0586
     21 C          -2.7910    3.0793   -0.0106 C.ar    1  UNL1        0.0279
     22 C           0.1453    2.0406    3.3171 C.3     1  UNL1        0.0021
     23 C          -1.7631    3.9901   -0.1945 C.ar    1  UNL1       -0.0436
     24 C          -0.1672    3.5129    3.3521 C.ar    1  UNL1        0.0756
     25 C           0.3055    4.4763    4.2160 C.ar    1  UNL1        0.1353
     26 C          -0.2270    5.7648    3.9235 C.ar    1  UNL1       -0.0124
     27 C          -1.0863    5.7376    2.8471 C.ar    1  UNL1       -0.0203
     28 C           1.0938    5.0103    6.3953 C.3     1  UNL1        0.0788
     29 H          -6.8125   -2.6984    1.9889 H       1  UNL1        0.2098
     30 H          -0.8845    1.6510    1.6082 H       1  UNL1        0.2017
     31 H           0.7439    1.9744    1.3814 H       1  UNL1        0.2017
     32 H          -1.8254   -1.9333    1.0585 H       1  UNL1        0.0302
     33 H          -2.3210   -0.3471    1.7051 H       1  UNL1        0.0302
     34 H          -4.3853   -1.7715    2.0766 H       1  UNL1        0.0318
     35 H          -4.2197   -3.0421    0.9381 H       1  UNL1        0.0318
     36 H          -4.1288    0.8097   -0.6633 H       1  UNL1        0.0294
     37 H          -4.3200    0.7679    1.0386 H       1  UNL1        0.0294
     38 H          -6.2264   -2.4315   -0.1837 H       1  UNL1        0.0594
     39 H          -6.1063   -0.3414   -1.0906 H       1  UNL1        0.0291
     40 H          -6.5727    0.3346    0.4216 H       1  UNL1        0.0291
     41 H          -0.8016   -1.9448   -1.3159 H       1  UNL1        0.0296
     42 H          -0.5952   -0.3814   -2.1211 H       1  UNL1        0.0296
     43 H           0.9935    0.0336   -0.0665 H       1  UNL1        0.0326
     44 H           0.4588   -1.5192    0.5600 H       1  UNL1        0.0326
     45 H          -2.9625   -0.0540   -2.1899 H       1  UNL1        0.0560
     46 H          -2.5587   -1.6058   -2.9164 H       1  UNL1        0.0560
     47 H          -0.3656   -0.4394    2.5738 H       1  UNL1        0.0814
     48 H           1.3341   -0.0908    2.3428 H       1  UNL1        0.0814
     49 H           0.6973    1.7318   -0.4072 H       1  UNL1        0.0636
     50 H           0.3188    4.1420   -0.4797 H       1  UNL1        0.0619
     51 H          -3.7493    3.4463    0.0987 H       1  UNL1        0.0829
     52 H           1.1378    1.8886    3.6872 H       1  UNL1        0.0873
     53 H          -0.5746    1.5338    3.9254 H       1  UNL1        0.0873
     54 H          -1.9497    5.0047   -0.2217 H       1  UNL1        0.0633
     55 H           0.0040    6.6184    4.4555 H       1  UNL1        0.0659
     56 H          -1.5748    6.5682    2.4779 H       1  UNL1        0.0694
     57 H           1.8323    4.6823    7.0968 H       1  UNL1        0.0660
     58 H           0.1212    4.9165    6.8312 H       1  UNL1        0.0660
     59 H           1.2733    6.0339    6.1408 H       1  UNL1        0.0660
@<TRIPOS>UNITY_ATOM_ATTR
6 1
charge 1
@<TRIPOS>BOND
     1     1    24   ar
     2     1    27   ar
     3     2    16    1
     4     3    12    1
     5     3    29    1
     6     4    25    1
     7     4    28    1
     8     5    17   ar
     9     5    21   ar
    10     6    18    1
    11     6    22    1
    12     6    30    1
    13     6    31    1
    14     7     2    1
    15     7     9    1
    16     7    10    1
    17     7    11    1
    18     8     9    1
    19     8    14    1
    20     8    15    1
    21     8    17    1
    22     9    32    1
    23     9    33    1
    24    10    12    1
    25    10    34    1
    26    10    35    1
    27    11    13    1
    28    11    36    1
    29    11    37    1
    30    12    13    1
    31    12    38    1
    32    13    39    1
    33    13    40    1
    34    14    16    1
    35    14    41    1
    36    14    42    1
    37    15    18    1
    38    15    43    1
    39    15    44    1
    40    16    45    1
    41    16    46    1
    42    17    19   ar
    43    18    47    1
    44    18    48    1
    45    19    20   ar
    46    19    49    1
    47    20    23   ar
    48    20    50    1
    49    21    23   ar
    50    21    51    1
    51    22    24    1
    52    22    52    1
    53    22    53    1
    54    23    54    1
    55    24    25   ar
    56    25    26   ar
    57    26    27   ar
    58    26    55    1
    59    27    56    1
    60    28    57    1
    61    28    58    1
    62    28    59    1
@<TRIPOS>MOLECULE
154925832
 59 62 0 0 0
SMALL
GASTEIGER

@<TRIPOS>ATOM
      1 S           4.1973   -2.6972    2.9984 S.2     1  UNL1       -0.0926
      2 O          -3.4780   -1.7041   -1.1056 O.3     1  UNL1       -0.3732
      3 O          -6.8095   -1.7965    1.6320 O.3     1  UNL1       -0.3917
      4 O           4.3064   -5.7698    0.6558 O.3     1  UNL1       -0.4941
      5 N          -2.5393    1.7296   -0.5793 N.ar    1  UNL1       -0.2593
      6 N           1.9227   -2.1473    1.1614 N.4     1  UNL1        0.2308
      7 C          -3.5817   -1.0970    0.1878 C.3     1  UNL1        0.0728
      8 C          -1.1415   -0.2325   -0.0614 C.3     1  UNL1        0.0224
      9 C          -2.1927   -0.9539    0.8332 C.3     1  UNL1       -0.0123
     10 C          -4.4808   -2.0092    1.0377 C.3     1  UNL1        0.0024
     11 C          -4.4284    0.1820    0.1498 C.3     1  UNL1       -0.0213
     12 C          -5.9002   -1.7207    0.5465 C.3     1  UNL1        0.0580
     13 C          -5.8625   -0.3127   -0.0491 C.3     1  UNL1       -0.0242
     14 C          -1.1858   -0.9535   -1.4364 C.3     1  UNL1       -0.0181
     15 C           0.2670   -0.4668    0.5390 C.3     1  UNL1       -0.0013
     16 C          -2.5969   -1.0429   -2.0073 C.3     1  UNL1        0.0492
     17 C          -1.3476    1.2945   -0.1120 C.ar    1  UNL1        0.0478
     18 C           0.6009   -1.9512    0.5778 C.3     1  UNL1       -0.0325
     19 C          -0.3286    2.1319    0.3127 C.ar    1  UNL1       -0.0398
     20 C          -0.5467    3.5039    0.2542 C.ar    1  UNL1       -0.0586
     21 C          -2.7149    3.0694   -0.6214 C.ar    1  UNL1        0.0279
     22 C           2.2719   -3.5605    1.1941 C.3     1  UNL1        0.0021
     23 C          -1.7599    3.9897   -0.2207 C.ar    1  UNL1       -0.0436
     24 C           3.6271   -3.7891    1.8090 C.ar    1  UNL1        0.0756
     25 C           4.5341   -4.7936    1.5521 C.ar    1  UNL1        0.1353
     26 C           5.7125   -4.6653    2.3422 C.ar    1  UNL1       -0.0124
     27 C           5.6616   -3.5675    3.1730 C.ar    1  UNL1       -0.0203
     28 C           5.3209   -6.7702    0.4891 C.3     1  UNL1        0.0788
     29 H          -6.8125   -2.6984    1.9889 H       1  UNL1        0.2098
     30 H           1.9253   -1.7807    2.1133 H       1  UNL1        0.2017
     31 H           2.6083   -1.6554    0.5883 H       1  UNL1        0.2017
     32 H          -1.8254   -1.9333    1.0585 H       1  UNL1        0.0302
     33 H          -2.3210   -0.3471    1.7051 H       1  UNL1        0.0302
     34 H          -4.3853   -1.7715    2.0766 H       1  UNL1        0.0318
     35 H          -4.2197   -3.0421    0.9381 H       1  UNL1        0.0318
     36 H          -4.1288    0.8097   -0.6633 H       1  UNL1        0.0294
     37 H          -4.3200    0.7679    1.0386 H       1  UNL1        0.0294
     38 H          -6.2264   -2.4315   -0.1837 H       1  UNL1        0.0594
     39 H          -6.1063   -0.3414   -1.0906 H       1  UNL1        0.0291
     40 H          -6.5727    0.3346    0.4216 H       1  UNL1        0.0291
     41 H          -0.8016   -1.9448   -1.3159 H       1  UNL1        0.0296
     42 H          -0.5952   -0.3814   -2.1211 H       1  UNL1        0.0296
     43 H           0.2928   -0.0758    1.5346 H       1  UNL1        0.0326
     44 H           0.9878    0.0297   -0.0764 H       1  UNL1        0.0326
     45 H          -2.9625   -0.0540   -2.1899 H       1  UNL1        0.0560
     46 H          -2.5587   -1.6058   -2.9164 H       1  UNL1        0.0560
     47 H          -0.1281   -2.4635    1.1702 H       1  UNL1        0.0814
     48 H           0.5947   -2.3399   -0.4191 H       1  UNL1        0.0814
     49 H           0.5641    1.7492    0.6616 H       1  UNL1        0.0636
     50 H           0.1889    4.1590    0.5620 H       1  UNL1        0.0619
     51 H          -3.6159    3.4287   -0.9738 H       1  UNL1        0.0829
     52 H           2.2778   -3.9388    0.1931 H       1  UNL1        0.0873
     53 H           1.5454   -4.0682    1.7936 H       1  UNL1        0.0873
     54 H          -1.9432    5.0039   -0.2731 H       1  UNL1        0.0633
     55 H           6.5105   -5.3180    2.2976 H       1  UNL1        0.0659
     56 H           6.4168   -3.3011    3.8238 H       1  UNL1        0.0694
     57 H           5.0066   -7.4772   -0.2500 H       1  UNL1        0.0660
     58 H           5.4811   -7.2741    1.4193 H       1  UNL1        0.0660
     59 H           6.2317   -6.3056    0.1737 H       1  UNL1        0.0660
@<TRIPOS>UNITY_ATOM_ATTR
6 1
charge 1
@<TRIPOS>BOND
     1     1    24   ar
     2     1    27   ar
     3     2    16    1
     4     3    12    1
     5     3    29    1
     6     4    25    1
     7     4    28    1
     8     5    17   ar
     9     5    21   ar
    10     6    18    1
    11     6    22    1
    12     6    30    1
    13     6    31    1
    14     7     2    1
    15     7     9    1
    16     7    10    1
    17     7    11    1
    18     8     9    1
    19     8    14    1
    20     8    15    1
    21     8    17    1
    22     9    32    1
    23     9    33    1
    24    10    12    1
    25    10    34    1
    26    10    35    1
    27    11    13    1
    28    11    36    1
    29    11    37    1
    30    12    13    1
    31    12    38    1
    32    13    39    1
    33    13    40    1
    34    14    16    1
    35    14    41    1
    36    14    42    1
    37    15    18    1
    38    15    43    1
    39    15    44    1
    40    16    45    1
    41    16    46    1
    42    17    19   ar
    43    18    47    1
    44    18    48    1
    45    19    20   ar
    46    19    49    1
    47    20    23   ar
    48    20    50    1
    49    21    23   ar
    50    21    51    1
    51    22    24    1
    52    22    52    1
    53    22    53    1
    54    23    54    1
    55    24    25   ar
    56    25    26   ar
    57    26    27   ar
    58    26    55    1
    59    27    56    1
    60    28    57    1
    61    28    58    1
    62    28    59    1
@<TRIPOS>MOLECULE
154925832
 59 62 0 0 0
SMALL
GASTEIGER

@<TRIPOS>ATOM
      1 S           0.3930    2.5129    2.8266 S.2     1  UNL1       -0.0926
      2 O          -3.4780   -1.7041   -1.1056 O.3     1  UNL1       -0.3732
      3 O          -6.8095   -1.7965    1.6320 O.3     1  UNL1       -0.3917
      4 O           2.8246    2.4341    5.8302 O.3     1  UNL1       -0.4941
      5 N          -1.8975    1.8680    0.9819 N.ar    1  UNL1       -0.2593
      6 N           1.6860   -0.1462    2.4978 N.4     1  UNL1        0.2308
      7 C          -3.5817   -1.0970    0.1878 C.3     1  UNL1        0.0728
      8 C          -1.1415   -0.2325   -0.0614 C.3     1  UNL1        0.0224
      9 C          -2.1927   -0.9539    0.8332 C.3     1  UNL1       -0.0123
     10 C          -4.4808   -2.0092    1.0377 C.3     1  UNL1        0.0024
     11 C          -4.4284    0.1820    0.1498 C.3     1  UNL1       -0.0213
     12 C          -5.9002   -1.7207    0.5465 C.3     1  UNL1        0.0580
     13 C          -5.8625   -0.3127   -0.0491 C.3     1  UNL1       -0.0242
     14 C          -1.1858   -0.9535   -1.4364 C.3     1  UNL1       -0.0181
     15 C           0.2670   -0.4668    0.5390 C.3     1  UNL1       -0.0013
     16 C          -2.5969   -1.0429   -2.0073 C.3     1  UNL1        0.0492
     17 C          -1.3476    1.2945   -0.1120 C.ar    1  UNL1        0.0478
     18 C           0.3478    0.0706    1.9607 C.3     1  UNL1       -0.0325
     19 C          -0.9698    1.9936   -1.2471 C.ar    1  UNL1       -0.0398
     20 C          -1.1692    3.3697   -1.2603 C.ar    1  UNL1       -0.0586
     21 C          -2.0760    3.2071    0.9324 C.ar    1  UNL1        0.0279
     22 C           1.7832    0.3454    3.8648 C.3     1  UNL1        0.0021
     23 C          -1.7324    3.9956   -0.1539 C.ar    1  UNL1       -0.0436
     24 C           1.4773    1.8169    3.9544 C.ar    1  UNL1        0.0756
     25 C           1.9589    2.7465    4.8499 C.ar    1  UNL1        0.1353
     26 C           1.4306    4.0470    4.6068 C.ar    1  UNL1       -0.0124
     27 C           0.5654    4.0622    3.5350 C.ar    1  UNL1       -0.0203
     28 C           2.7613    3.1984    7.0425 C.3     1  UNL1        0.0788
     29 H          -6.8125   -2.6984    1.9889 H       1  UNL1        0.2098
     30 H           2.3632    0.3475    1.9164 H       1  UNL1        0.2017
     31 H           1.8790   -1.1478    2.4971 H       1  UNL1        0.2017
     32 H          -1.8254   -1.9333    1.0585 H       1  UNL1        0.0302
     33 H          -2.3210   -0.3471    1.7051 H       1  UNL1        0.0302
     34 H          -4.3853   -1.7715    2.0766 H       1  UNL1        0.0318
     35 H          -4.2197   -3.0421    0.9381 H       1  UNL1        0.0318
     36 H          -4.1288    0.8097   -0.6633 H       1  UNL1        0.0294
     37 H          -4.3200    0.7679    1.0386 H       1  UNL1        0.0294
     38 H          -6.2264   -2.4315   -0.1837 H       1  UNL1        0.0594
     39 H          -6.1063   -0.3414   -1.0906 H       1  UNL1        0.0291
     40 H          -6.5727    0.3346    0.4216 H       1  UNL1        0.0291
     41 H          -0.8016   -1.9448   -1.3159 H       1  UNL1        0.0296
     42 H          -0.5952   -0.3814   -2.1211 H       1  UNL1        0.0296
     43 H           0.9935    0.0336   -0.0665 H       1  UNL1        0.0326
     44 H           0.4588   -1.5192    0.5600 H       1  UNL1        0.0326
     45 H          -2.9625   -0.0540   -2.1899 H       1  UNL1        0.0560
     46 H          -2.5587   -1.6058   -2.9164 H       1  UNL1        0.0560
     47 H           0.1326    1.1188    1.9565 H       1  UNL1        0.0814
     48 H          -0.3647   -0.4424    2.5723 H       1  UNL1        0.0814
     49 H          -0.5535    1.5083   -2.0572 H       1  UNL1        0.0636
     50 H          -0.9002    3.9242   -2.0881 H       1  UNL1        0.0619
     51 H          -2.4939    3.6706    1.7543 H       1  UNL1        0.0829
     52 H           2.7769    0.1761    4.2237 H       1  UNL1        0.0873
     53 H           1.0643   -0.1798    4.4584 H       1  UNL1        0.0873
     54 H          -1.8897    5.0155   -0.1421 H       1  UNL1        0.0633
     55 H           1.6681    4.8799    5.1679 H       1  UNL1        0.0659
     56 H           0.0785    4.9076    3.1986 H       1  UNL1        0.0694
     57 H           3.5021    2.8423    7.7277 H       1  UNL1        0.0660
     58 H           1.7906    3.0931    7.4802 H       1  UNL1        0.0660
     59 H           2.9440    4.2298    6.8240 H       1  UNL1        0.0660
@<TRIPOS>UNITY_ATOM_ATTR
6 1
charge 1
@<TRIPOS>BOND
     1     1    24   ar
     2     1    27   ar
     3     2    16    1
     4     3    12    1
     5     3    29    1
     6     4    25    1
     7     4    28    1
     8     5    17   ar
     9     5    21   ar
    10     6    18    1
    11     6    22    1
    12     6    30    1
    13     6    31    1
    14     7     2    1
    15     7     9    1
    16     7    10    1
    17     7    11    1
    18     8     9    1
    19     8    14    1
    20     8    15    1
    21     8    17    1
    22     9    32    1
    23     9    33    1
    24    10    12    1
    25    10    34    1
    26    10    35    1
    27    11    13    1
    28    11    36    1
    29    11    37    1
    30    12    13    1
    31    12    38    1
    32    13    39    1
    33    13    40    1
    34    14    16    1
    35    14    41    1
    36    14    42    1
    37    15    18    1
    38    15    43    1
    39    15    44    1
    40    16    45    1
    41    16    46    1
    42    17    19   ar
    43    18    47    1
    44    18    48    1
    45    19    20   ar
    46    19    49    1
    47    20    23   ar
    48    20    50    1
    49    21    23   ar
    50    21    51    1
    51    22    24    1
    52    22    52    1
    53    22    53    1
    54    23    54    1
    55    24    25   ar
    56    25    26   ar
    57    26    27   ar
    58    26    55    1
    59    27    56    1
    60    28    57    1
    61    28    58    1
    62    28    59    1
@<TRIPOS>MOLECULE
154925832
 59 62 0 0 0
SMALL
GASTEIGER

@<TRIPOS>ATOM
      1 S           3.3403    0.7407    0.9492 S.2     1  UNL1       -0.0926
      2 O          -3.4780   -1.7041   -1.1056 O.3     1  UNL1       -0.3732
      3 O          -6.8095   -1.7965    1.6320 O.3     1  UNL1       -0.3917
      4 O           2.6312    3.8486    3.1351 O.3     1  UNL1       -0.4941
      5 N          -0.4848    1.9970   -0.8800 N.ar    1  UNL1       -0.2593
      6 N           0.0578    1.4996    1.9681 N.4     1  UNL1        0.2308
      7 C          -3.5817   -1.0970    0.1878 C.3     1  UNL1        0.0728
      8 C          -1.1415   -0.2325   -0.0614 C.3     1  UNL1        0.0224
      9 C          -2.1927   -0.9539    0.8332 C.3     1  UNL1       -0.0123
     10 C          -4.4808   -2.0092    1.0377 C.3     1  UNL1        0.0024
     11 C          -4.4284    0.1820    0.1498 C.3     1  UNL1       -0.0213
     12 C          -5.9002   -1.7207    0.5465 C.3     1  UNL1        0.0580
     13 C          -5.8625   -0.3127   -0.0491 C.3     1  UNL1       -0.0242
     14 C          -1.1858   -0.9535   -1.4364 C.3     1  UNL1       -0.0181
     15 C           0.2670   -0.4668    0.5390 C.3     1  UNL1       -0.0013
     16 C          -2.5969   -1.0429   -2.0073 C.3     1  UNL1        0.0492
     17 C          -1.3476    1.2945   -0.1120 C.ar    1  UNL1        0.0478
     18 C           0.3478    0.0706    1.9607 C.3     1  UNL1       -0.0325
     19 C          -2.3814    1.8648    0.6132 C.ar    1  UNL1       -0.0398
     20 C          -2.5399    3.2445    0.5458 C.ar    1  UNL1       -0.0586
     21 C          -0.6699    3.3355   -0.9210 C.ar    1  UNL1        0.0279
     22 C           1.0015    2.2257    1.1302 C.3     1  UNL1        0.0021
     23 C          -1.6719    4.0012   -0.2335 C.ar    1  UNL1       -0.0436
     24 C           2.4221    2.0356    1.5912 C.ar    1  UNL1        0.0756
     25 C           3.1424    2.7793    2.5000 C.ar    1  UNL1        0.1353
     26 C           4.4653    2.2796    2.6713 C.ar    1  UNL1       -0.0124
     27 C           4.7061    1.1729    1.8871 C.ar    1  UNL1       -0.0203
     28 C           3.1247    4.1404    4.4501 C.3     1  UNL1        0.0788
     29 H          -6.8125   -2.6984    1.9889 H       1  UNL1        0.2098
     30 H           0.1231    1.8486    2.9244 H       1  UNL1        0.2017
     31 H          -0.8826    1.6432    1.5999 H       1  UNL1        0.2017
     32 H          -1.8254   -1.9333    1.0585 H       1  UNL1        0.0302
     33 H          -2.3210   -0.3471    1.7051 H       1  UNL1        0.0302
     34 H          -4.3853   -1.7715    2.0766 H       1  UNL1        0.0318
     35 H          -4.2197   -3.0421    0.9381 H       1  UNL1        0.0318
     36 H          -4.1288    0.8097   -0.6633 H       1  UNL1        0.0294
     37 H          -4.3200    0.7679    1.0386 H       1  UNL1        0.0294
     38 H          -6.2264   -2.4315   -0.1837 H       1  UNL1        0.0594
     39 H          -6.1063   -0.3414   -1.0906 H       1  UNL1        0.0291
     40 H          -6.5727    0.3346    0.4216 H       1  UNL1        0.0291
     41 H          -0.8016   -1.9448   -1.3159 H       1  UNL1        0.0296
     42 H          -0.5952   -0.3814   -2.1211 H       1  UNL1        0.0296
     43 H           0.9935    0.0336   -0.0665 H       1  UNL1        0.0326
     44 H           0.4588   -1.5192    0.5600 H       1  UNL1        0.0326
     45 H          -2.9625   -0.0540   -2.1899 H       1  UNL1        0.0560
     46 H          -2.5587   -1.6058   -2.9164 H       1  UNL1        0.0560
     47 H          -0.3656   -0.4394    2.5738 H       1  UNL1        0.0814
     48 H           1.3341   -0.0908    2.3428 H       1  UNL1        0.0814
     49 H          -3.0139    1.2836    1.1854 H       1  UNL1        0.0636
     50 H          -3.2987    3.7052    1.0722 H       1  UNL1        0.0619
     51 H          -0.0252    3.8959   -1.5001 H       1  UNL1        0.0829
     52 H           0.7633    3.2684    1.1640 H       1  UNL1        0.0873
     53 H           0.9221    1.8444    0.1335 H       1  UNL1        0.0873
     54 H          -1.7708    5.0263   -0.2979 H       1  UNL1        0.0633
     55 H           5.1616    2.6975    3.3081 H       1  UNL1        0.0659
     56 H           5.6038    0.6642    1.8672 H       1  UNL1        0.0694
     57 H           2.6327    5.0112    4.8306 H       1  UNL1        0.0660
     58 H           4.1788    4.3178    4.4043 H       1  UNL1        0.0660
     59 H           2.9305    3.3100    5.0964 H       1  UNL1        0.0660
@<TRIPOS>UNITY_ATOM_ATTR
6 1
charge 1
@<TRIPOS>BOND
     1     1    24   ar
     2     1    27   ar
     3     2    16    1
     4     3    12    1
     5     3    29    1
     6     4    25    1
     7     4    28    1
     8     5    17   ar
     9     5    21   ar
    10     6    18    1
    11     6    22    1
    12     6    30    1
    13     6    31    1
    14     7     2    1
    15     7     9    1
    16     7    10    1
    17     7    11    1
    18     8     9    1
    19     8    14    1
    20     8    15    1
    21     8    17    1
    22     9    32    1
    23     9    33    1
    24    10    12    1
    25    10    34    1
    26    10    35    1
    27    11    13    1
    28    11    36    1
    29    11    37    1
    30    12    13    1
    31    12    38    1
    32    13    39    1
    33    13    40    1
    34    14    16    1
    35    14    41    1
    36    14    42    1
    37    15    18    1
    38    15    43    1
    39    15    44    1
    40    16    45    1
    41    16    46    1
    42    17    19   ar
    43    18    47    1
    44    18    48    1
    45    19    20   ar
    46    19    49    1
    47    20    23   ar
    48    20    50    1
    49    21    23   ar
    50    21    51    1
    51    22    24    1
    52    22    52    1
    53    22    53    1
    54    23    54    1
    55    24    25   ar
    56    25    26   ar
    57    26    27   ar
    58    26    55    1
    59    27    56    1
    60    28    57    1
    61    28    58    1
    62    28    59    1
@<TRIPOS>MOLECULE
154925832
 59 62 0 0 0
SMALL
GASTEIGER

@<TRIPOS>ATOM
      1 S           6.4194    1.1251   -0.6681 S.2     1  UNL1       -0.0926
      2 O          -3.4780   -1.7041   -1.1056 O.3     1  UNL1       -0.3732
      3 O          -6.8095   -1.7965    1.6320 O.3     1  UNL1       -0.3917
      4 O           4.5199   -1.0285    1.9192 O.3     1  UNL1       -0.4941
      5 N          -0.4848    1.9970   -0.8800 N.ar    1  UNL1       -0.2593
      6 N           2.6511   -0.0149    0.2847 N.4     1  UNL1        0.2308
      7 C          -3.5817   -1.0970    0.1878 C.3     1  UNL1        0.0728
      8 C          -1.1415   -0.2325   -0.0614 C.3     1  UNL1        0.0224
      9 C          -2.1927   -0.9539    0.8332 C.3     1  UNL1       -0.0123
     10 C          -4.4808   -2.0092    1.0377 C.3     1  UNL1        0.0024
     11 C          -4.4284    0.1820    0.1498 C.3     1  UNL1       -0.0213
     12 C          -5.9002   -1.7207    0.5465 C.3     1  UNL1        0.0580
     13 C          -5.8625   -0.3127   -0.0491 C.3     1  UNL1       -0.0242
     14 C          -1.1858   -0.9535   -1.4364 C.3     1  UNL1       -0.0181
     15 C           0.2670   -0.4668    0.5390 C.3     1  UNL1       -0.0013
     16 C          -2.5969   -1.0429   -2.0073 C.3     1  UNL1        0.0492
     17 C          -1.3476    1.2945   -0.1120 C.ar    1  UNL1        0.0478
     18 C           1.3342    0.2337   -0.2898 C.3     1  UNL1       -0.0325
     19 C          -2.3814    1.8648    0.6132 C.ar    1  UNL1       -0.0398
     20 C          -2.5399    3.2445    0.5458 C.ar    1  UNL1       -0.0586
     21 C          -0.6699    3.3355   -0.9210 C.ar    1  UNL1        0.0279
     22 C           3.6886    0.6598   -0.4825 C.3     1  UNL1        0.0021
     23 C          -1.6719    4.0012   -0.2335 C.ar    1  UNL1       -0.0436
     24 C           5.0602    0.4032    0.0828 C.ar    1  UNL1        0.0756
     25 C           5.4172   -0.3645    1.1696 C.ar    1  UNL1        0.1353
     26 C           6.8247   -0.3597    1.3887 C.ar    1  UNL1       -0.0124
     27 C           7.4904    0.4112    0.4612 C.ar    1  UNL1       -0.0203
     28 C           4.8249   -1.2209    3.3077 C.3     1  UNL1        0.0788
     29 H          -6.8125   -2.6984    1.9889 H       1  UNL1        0.2098
     30 H           2.8328   -1.0186    0.2815 H       1  UNL1        0.2017
     31 H           2.6641    0.3464    1.2385 H       1  UNL1        0.2017
     32 H          -1.8254   -1.9333    1.0585 H       1  UNL1        0.0302
     33 H          -2.3210   -0.3471    1.7051 H       1  UNL1        0.0302
     34 H          -4.3853   -1.7715    2.0766 H       1  UNL1        0.0318
     35 H          -4.2197   -3.0421    0.9381 H       1  UNL1        0.0318
     36 H          -4.1288    0.8097   -0.6633 H       1  UNL1        0.0294
     37 H          -4.3200    0.7679    1.0386 H       1  UNL1        0.0294
     38 H          -6.2264   -2.4315   -0.1837 H       1  UNL1        0.0594
     39 H          -6.1063   -0.3414   -1.0906 H       1  UNL1        0.0291
     40 H          -6.5727    0.3346    0.4216 H       1  UNL1        0.0291
     41 H          -0.8016   -1.9448   -1.3159 H       1  UNL1        0.0296
     42 H          -0.5952   -0.3814   -2.1211 H       1  UNL1        0.0296
     43 H           0.4702   -1.5172    0.5562 H       1  UNL1        0.0326
     44 H           0.2867   -0.0660    1.5309 H       1  UNL1        0.0326
     45 H          -2.9625   -0.0540   -2.1899 H       1  UNL1        0.0560
     46 H          -2.5587   -1.6058   -2.9164 H       1  UNL1        0.0560
     47 H           1.3078   -0.1407   -1.2918 H       1  UNL1        0.0814
     48 H           1.1438    1.2866   -0.2920 H       1  UNL1        0.0814
     49 H          -3.0139    1.2836    1.1854 H       1  UNL1        0.0636
     50 H          -3.2987    3.7052    1.0722 H       1  UNL1        0.0619
     51 H          -0.0252    3.8959   -1.5001 H       1  UNL1        0.0829
     52 H           3.4999    1.7129   -0.4683 H       1  UNL1        0.0873
     53 H           3.6643    0.2774   -1.4815 H       1  UNL1        0.0873
     54 H          -1.7708    5.0263   -0.2979 H       1  UNL1        0.0633
     55 H           7.2911   -0.8735    2.1526 H       1  UNL1        0.0659
     56 H           8.5138    0.5430    0.4484 H       1  UNL1        0.0694
     57 H           4.0285   -1.7603    3.7764 H       1  UNL1        0.0660
     58 H           4.9392   -0.2691    3.7829 H       1  UNL1        0.0660
     59 H           5.7346   -1.7768    3.3995 H       1  UNL1        0.0660
@<TRIPOS>UNITY_ATOM_ATTR
6 1
charge 1
@<TRIPOS>BOND
     1     1    24   ar
     2     1    27   ar
     3     2    16    1
     4     3    12    1
     5     3    29    1
     6     4    25    1
     7     4    28    1
     8     5    17   ar
     9     5    21   ar
    10     6    18    1
    11     6    22    1
    12     6    30    1
    13     6    31    1
    14     7     2    1
    15     7     9    1
    16     7    10    1
    17     7    11    1
    18     8     9    1
    19     8    14    1
    20     8    15    1
    21     8    17    1
    22     9    32    1
    23     9    33    1
    24    10    12    1
    25    10    34    1
    26    10    35    1
    27    11    13    1
    28    11    36    1
    29    11    37    1
    30    12    13    1
    31    12    38    1
    32    13    39    1
    33    13    40    1
    34    14    16    1
    35    14    41    1
    36    14    42    1
    37    15    18    1
    38    15    43    1
    39    15    44    1
    40    16    45    1
    41    16    46    1
    42    17    19   ar
    43    18    47    1
    44    18    48    1
    45    19    20   ar
    46    19    49    1
    47    20    23   ar
    48    20    50    1
    49    21    23   ar
    50    21    51    1
    51    22    24    1
    52    22    52    1
    53    22    53    1
    54    23    54    1
    55    24    25   ar
    56    25    26   ar
    57    26    27   ar
    58    26    55    1
    59    27    56    1
    60    28    57    1
    61    28    58    1
    62    28    59    1
@<TRIPOS>MOLECULE
154925832
 59 62 0 0 0
SMALL
GASTEIGER

@<TRIPOS>ATOM
      1 S          -0.6817   -2.2959    3.0309 S.2     1  UNL1       -0.0926
      2 O          -3.4780   -1.7041   -1.1056 O.3     1  UNL1       -0.3732
      3 O          -6.8095   -1.7965    1.6320 O.3     1  UNL1       -0.3917
      4 O           2.4598   -3.2534    5.0692 O.3     1  UNL1       -0.4941
      5 N          -0.2395    2.0499   -0.2834 N.ar    1  UNL1       -0.2593
      6 N           1.9227   -2.1473    1.1614 N.4     1  UNL1        0.2308
      7 C          -3.5817   -1.0970    0.1878 C.3     1  UNL1        0.0728
      8 C          -1.1415   -0.2325   -0.0614 C.3     1  UNL1        0.0224
      9 C          -2.1927   -0.9539    0.8332 C.3     1  UNL1       -0.0123
     10 C          -4.4808   -2.0092    1.0377 C.3     1  UNL1        0.0024
     11 C          -4.4284    0.1820    0.1498 C.3     1  UNL1       -0.0213
     12 C          -5.9002   -1.7207    0.5465 C.3     1  UNL1        0.0580
     13 C          -5.8625   -0.3127   -0.0491 C.3     1  UNL1       -0.0242
     14 C          -1.1858   -0.9535   -1.4364 C.3     1  UNL1       -0.0181
     15 C           0.2670   -0.4668    0.5390 C.3     1  UNL1       -0.0013
     16 C          -2.5969   -1.0429   -2.0073 C.3     1  UNL1        0.0492
     17 C          -1.3476    1.2945   -0.1120 C.ar    1  UNL1        0.0478
     18 C           0.6009   -1.9512    0.5778 C.3     1  UNL1       -0.0325
     19 C          -2.6265    1.8119    0.0171 C.ar    1  UNL1       -0.0398
     20 C          -2.7778    3.1932   -0.0330 C.ar    1  UNL1       -0.0586
     21 C          -0.4257    3.3881   -0.3272 C.ar    1  UNL1        0.0279
     22 C           1.9686   -1.6410    2.5258 C.3     1  UNL1        0.0021
     23 C          -1.6614    4.0034   -0.2080 C.ar    1  UNL1       -0.0436
     24 C           0.9851   -2.3484    3.4197 C.ar    1  UNL1        0.0756
     25 C           1.2257   -3.0721    4.5670 C.ar    1  UNL1        0.1353
     26 C           0.0260   -3.5903    5.1340 C.ar    1  UNL1       -0.0124
     27 C          -1.0861   -3.2431    4.3988 C.ar    1  UNL1       -0.0203
     28 C           3.5588   -2.6578    4.3654 C.3     1  UNL1        0.0788
     29 H          -6.8125   -2.6984    1.9889 H       1  UNL1        0.2098
     30 H           2.6135   -1.6517    0.5979 H       1  UNL1        0.2017
     31 H           2.1268   -3.1466    1.1776 H       1  UNL1        0.2017
     32 H          -1.8254   -1.9333    1.0585 H       1  UNL1        0.0302
     33 H          -2.3210   -0.3471    1.7051 H       1  UNL1        0.0302
     34 H          -4.3853   -1.7715    2.0766 H       1  UNL1        0.0318
     35 H          -4.2197   -3.0421    0.9381 H       1  UNL1        0.0318
     36 H          -4.1288    0.8097   -0.6633 H       1  UNL1        0.0294
     37 H          -4.3200    0.7679    1.0386 H       1  UNL1        0.0294
     38 H          -6.2264   -2.4315   -0.1837 H       1  UNL1        0.0594
     39 H          -6.1063   -0.3414   -1.0906 H       1  UNL1        0.0291
     40 H          -6.5727    0.3346    0.4216 H       1  UNL1        0.0291
     41 H          -0.8016   -1.9448   -1.3159 H       1  UNL1        0.0296
     42 H          -0.5952   -0.3814   -2.1211 H       1  UNL1        0.0296
     43 H           0.2928   -0.0758    1.5346 H       1  UNL1        0.0326
     44 H           0.9878    0.0297   -0.0764 H       1  UNL1        0.0326
     45 H          -2.9625   -0.0540   -2.1899 H       1  UNL1        0.0560
     46 H          -2.5587   -1.6058   -2.9164 H       1  UNL1        0.0560
     47 H          -0.1281   -2.4635    1.1702 H       1  UNL1        0.0814
     48 H           0.5947   -2.3399   -0.4191 H       1  UNL1        0.0814
     49 H          -3.4411    1.1916    0.1463 H       1  UNL1        0.0636
     50 H          -3.7150    3.6155    0.0593 H       1  UNL1        0.0619
     51 H           0.4036    3.9884   -0.4574 H       1  UNL1        0.0829
     52 H           1.7374   -0.5963    2.5153 H       1  UNL1        0.0873
     53 H           2.9517   -1.8141    2.9113 H       1  UNL1        0.0873
     54 H          -1.7504    5.0308   -0.2479 H       1  UNL1        0.0633
     55 H          -0.0062   -4.1591    5.9945 H       1  UNL1        0.0659
     56 H          -2.0493   -3.5211    4.6436 H       1  UNL1        0.0694
     57 H           4.4725   -2.8827    4.8750 H       1  UNL1        0.0660
     58 H           3.4242   -1.5971    4.3259 H       1  UNL1        0.0660
     59 H           3.5996   -3.0495    3.3705 H       1  UNL1        0.0660
@<TRIPOS>UNITY_ATOM_ATTR
6 1
charge 1
@<TRIPOS>BOND
     1     1    24   ar
     2     1    27   ar
     3     2    16    1
     4     3    12    1
     5     3    29    1
     6     4    25    1
     7     4    28    1
     8     5    17   ar
     9     5    21   ar
    10     6    18    1
    11     6    22    1
    12     6    30    1
    13     6    31    1
    14     7     2    1
    15     7     9    1
    16     7    10    1
    17     7    11    1
    18     8     9    1
    19     8    14    1
    20     8    15    1
    21     8    17    1
    22     9    32    1
    23     9    33    1
    24    10    12    1
    25    10    34    1
    26    10    35    1
    27    11    13    1
    28    11    36    1
    29    11    37    1
    30    12    13    1
    31    12    38    1
    32    13    39    1
    33    13    40    1
    34    14    16    1
    35    14    41    1
    36    14    42    1
    37    15    18    1
    38    15    43    1
    39    15    44    1
    40    16    45    1
    41    16    46    1
    42    17    19   ar
    43    18    47    1
    44    18    48    1
    45    19    20   ar
    46    19    49    1
    47    20    23   ar
    48    20    50    1
    49    21    23   ar
    50    21    51    1
    51    22    24    1
    52    22    52    1
    53    22    53    1
    54    23    54    1
    55    24    25   ar
    56    25    26   ar
    57    26    27   ar
    58    26    55    1
    59    27    56    1
    60    28    57    1
    61    28    58    1
    62    28    59    1
@<TRIPOS>MOLECULE
154925832
 59 62 0 0 0
SMALL
GASTEIGER

@<TRIPOS>ATOM
      1 S          -0.5990   -1.7180    3.5793 S.2     1  UNL1       -0.0926
      2 O          -3.4780   -1.7041   -1.1056 O.3     1  UNL1       -0.3732
      3 O          -6.8095   -1.7965    1.6320 O.3     1  UNL1       -0.3917
      4 O           2.3297   -4.1610    4.2077 O.3     1  UNL1       -0.4941
      5 N          -0.2395    2.0499   -0.2834 N.ar    1  UNL1       -0.2593
      6 N           1.9227   -2.1473    1.1614 N.4     1  UNL1        0.2308
      7 C          -3.5817   -1.0970    0.1878 C.3     1  UNL1        0.0728
      8 C          -1.1415   -0.2325   -0.0614 C.3     1  UNL1        0.0224
      9 C          -2.1927   -0.9539    0.8332 C.3     1  UNL1       -0.0123
     10 C          -4.4808   -2.0092    1.0377 C.3     1  UNL1        0.0024
     11 C          -4.4284    0.1820    0.1498 C.3     1  UNL1       -0.0213
     12 C          -5.9002   -1.7207    0.5465 C.3     1  UNL1        0.0580
     13 C          -5.8625   -0.3127   -0.0491 C.3     1  UNL1       -0.0242
     14 C          -1.1858   -0.9535   -1.4364 C.3     1  UNL1       -0.0181
     15 C           0.2670   -0.4668    0.5390 C.3     1  UNL1       -0.0013
     16 C          -2.5969   -1.0429   -2.0073 C.3     1  UNL1        0.0492
     17 C          -1.3476    1.2945   -0.1120 C.ar    1  UNL1        0.0478
     18 C           0.6009   -1.9512    0.5778 C.3     1  UNL1       -0.0325
     19 C          -2.6265    1.8119    0.0171 C.ar    1  UNL1       -0.0398
     20 C          -2.7778    3.1932   -0.0330 C.ar    1  UNL1       -0.0586
     21 C          -0.4257    3.3881   -0.3272 C.ar    1  UNL1        0.0279
     22 C           1.9686   -1.6410    2.5258 C.3     1  UNL1        0.0021
     23 C          -1.6614    4.0034   -0.2080 C.ar    1  UNL1       -0.0436
     24 C           0.9851   -2.3484    3.4197 C.ar    1  UNL1        0.0756
     25 C           1.1667   -3.4869    4.1738 C.ar    1  UNL1        0.1353
     26 C          -0.0100   -3.8463    4.8918 C.ar    1  UNL1       -0.0124
     27 C          -1.0464   -2.9690    4.6594 C.ar    1  UNL1       -0.0203
     28 C           2.3904   -5.3431    5.0182 C.3     1  UNL1        0.0788
     29 H          -6.8125   -2.6984    1.9889 H       1  UNL1        0.2098
     30 H           2.6135   -1.6517    0.5979 H       1  UNL1        0.2017
     31 H           2.1268   -3.1466    1.1776 H       1  UNL1        0.2017
     32 H          -1.8254   -1.9333    1.0585 H       1  UNL1        0.0302
     33 H          -2.3210   -0.3471    1.7051 H       1  UNL1        0.0302
     34 H          -4.3853   -1.7715    2.0766 H       1  UNL1        0.0318
     35 H          -4.2197   -3.0421    0.9381 H       1  UNL1        0.0318
     36 H          -4.1288    0.8097   -0.6633 H       1  UNL1        0.0294
     37 H          -4.3200    0.7679    1.0386 H       1  UNL1        0.0294
     38 H          -6.2264   -2.4315   -0.1837 H       1  UNL1        0.0594
     39 H          -6.1063   -0.3414   -1.0906 H       1  UNL1        0.0291
     40 H          -6.5727    0.3346    0.4216 H       1  UNL1        0.0291
     41 H          -0.8016   -1.9448   -1.3159 H       1  UNL1        0.0296
     42 H          -0.5952   -0.3814   -2.1211 H       1  UNL1        0.0296
     43 H           0.2928   -0.0758    1.5346 H       1  UNL1        0.0326
     44 H           0.9878    0.0297   -0.0764 H       1  UNL1        0.0326
     45 H          -2.9625   -0.0540   -2.1899 H       1  UNL1        0.0560
     46 H          -2.5587   -1.6058   -2.9164 H       1  UNL1        0.0560
     47 H          -0.1281   -2.4635    1.1702 H       1  UNL1        0.0814
     48 H           0.5947   -2.3399   -0.4191 H       1  UNL1        0.0814
     49 H          -3.4411    1.1916    0.1463 H       1  UNL1        0.0636
     50 H          -3.7150    3.6155    0.0593 H       1  UNL1        0.0619
     51 H           0.4036    3.9884   -0.4574 H       1  UNL1        0.0829
     52 H           1.7374   -0.5963    2.5153 H       1  UNL1        0.0873
     53 H           2.9517   -1.8141    2.9113 H       1  UNL1        0.0873
     54 H          -1.7504    5.0308   -0.2479 H       1  UNL1        0.0633
     55 H          -0.0781   -4.6675    5.5130 H       1  UNL1        0.0659
     56 H          -1.9820   -3.0556    5.0859 H       1  UNL1        0.0694
     57 H           3.3682   -5.7725    4.9499 H       1  UNL1        0.0660
     58 H           1.6654   -6.0500    4.6727 H       1  UNL1        0.0660
     59 H           2.1831   -5.0884    6.0366 H       1  UNL1        0.0660
@<TRIPOS>UNITY_ATOM_ATTR
6 1
charge 1
@<TRIPOS>BOND
     1     1    24   ar
     2     1    27   ar
     3     2    16    1
     4     3    12    1
     5     3    29    1
     6     4    25    1
     7     4    28    1
     8     5    17   ar
     9     5    21   ar
    10     6    18    1
    11     6    22    1
    12     6    30    1
    13     6    31    1
    14     7     2    1
    15     7     9    1
    16     7    10    1
    17     7    11    1
    18     8     9    1
    19     8    14    1
    20     8    15    1
    21     8    17    1
    22     9    32    1
    23     9    33    1
    24    10    12    1
    25    10    34    1
    26    10    35    1
    27    11    13    1
    28    11    36    1
    29    11    37    1
    30    12    13    1
    31    12    38    1
    32    13    39    1
    33    13    40    1
    34    14    16    1
    35    14    41    1
    36    14    42    1
    37    15    18    1
    38    15    43    1
    39    15    44    1
    40    16    45    1
    41    16    46    1
    42    17    19   ar
    43    18    47    1
    44    18    48    1
    45    19    20   ar
    46    19    49    1
    47    20    23   ar
    48    20    50    1
    49    21    23   ar
    50    21    51    1
    51    22    24    1
    52    22    52    1
    53    22    53    1
    54    23    54    1
    55    24    25   ar
    56    25    26   ar
    57    26    27   ar
    58    26    55    1
    59    27    56    1
    60    28    57    1
    61    28    58    1
    62    28    59    1
@<TRIPOS>MOLECULE
154925832
 59 62 0 0 0
SMALL
GASTEIGER

@<TRIPOS>ATOM
      1 S           2.6399   -0.9954   -2.4282 S.2     1  UNL1       -0.0926
      2 O          -3.4780   -1.7041   -1.1056 O.3     1  UNL1       -0.3732
      3 O          -6.8095   -1.7965    1.6320 O.3     1  UNL1       -0.3917
      4 O           3.4862   -4.3025   -0.6150 O.3     1  UNL1       -0.4941
      5 N          -2.1487    1.7653   -1.0941 N.ar    1  UNL1       -0.2593
      6 N           2.6511   -0.0149    0.2847 N.4     1  UNL1        0.2308
      7 C          -3.5817   -1.0970    0.1878 C.3     1  UNL1        0.0728
      8 C          -1.1415   -0.2325   -0.0614 C.3     1  UNL1        0.0224
      9 C          -2.1927   -0.9539    0.8332 C.3     1  UNL1       -0.0123
     10 C          -4.4808   -2.0092    1.0377 C.3     1  UNL1        0.0024
     11 C          -4.4284    0.1820    0.1498 C.3     1  UNL1       -0.0213
     12 C          -5.9002   -1.7207    0.5465 C.3     1  UNL1        0.0580
     13 C          -5.8625   -0.3127   -0.0491 C.3     1  UNL1       -0.0242
     14 C          -1.1858   -0.9535   -1.4364 C.3     1  UNL1       -0.0181
     15 C           0.2670   -0.4668    0.5390 C.3     1  UNL1       -0.0013
     16 C          -2.5969   -1.0429   -2.0073 C.3     1  UNL1        0.0492
     17 C          -1.3476    1.2945   -0.1120 C.ar    1  UNL1        0.0478
     18 C           1.3342    0.2337   -0.2898 C.3     1  UNL1       -0.0325
     19 C          -0.7189    2.0962    0.8271 C.ar    1  UNL1       -0.0398
     20 C          -0.9257    3.4693    0.7536 C.ar    1  UNL1       -0.0586
     21 C          -2.3261    3.1049   -1.1339 C.ar    1  UNL1        0.0279
     22 C           2.9533   -1.4392    0.2945 C.3     1  UNL1        0.0021
     23 C          -1.7431    3.9912   -0.2427 C.ar    1  UNL1       -0.0436
     24 C           2.9641   -2.0196   -1.0947 C.ar    1  UNL1        0.0756
     25 C           3.2063   -3.3178   -1.4868 C.ar    1  UNL1        0.1353
     26 C           3.1247   -3.4736   -2.9005 C.ar    1  UNL1       -0.0124
     27 C           2.8233   -2.2887   -3.5353 C.ar    1  UNL1       -0.0203
     28 C           2.9278   -4.2036    0.7026 C.3     1  UNL1        0.0788
     29 H          -6.8125   -2.6984    1.9889 H       1  UNL1        0.2098
     30 H           2.6698    0.3370    1.2420 H       1  UNL1        0.2017
     31 H           3.3503    0.4627   -0.2841 H       1  UNL1        0.2017
     32 H          -1.8254   -1.9333    1.0585 H       1  UNL1        0.0302
     33 H          -2.3210   -0.3471    1.7051 H       1  UNL1        0.0302
     34 H          -4.3853   -1.7715    2.0766 H       1  UNL1        0.0318
     35 H          -4.2197   -3.0421    0.9381 H       1  UNL1        0.0318
     36 H          -4.1288    0.8097   -0.6633 H       1  UNL1        0.0294
     37 H          -4.3200    0.7679    1.0386 H       1  UNL1        0.0294
     38 H          -6.2264   -2.4315   -0.1837 H       1  UNL1        0.0594
     39 H          -6.1063   -0.3414   -1.0906 H       1  UNL1        0.0291
     40 H          -6.5727    0.3346    0.4216 H       1  UNL1        0.0291
     41 H          -0.8016   -1.9448   -1.3159 H       1  UNL1        0.0296
     42 H          -0.5952   -0.3814   -2.1211 H       1  UNL1        0.0296
     43 H           0.4702   -1.5172    0.5562 H       1  UNL1        0.0326
     44 H           0.2867   -0.0660    1.5309 H       1  UNL1        0.0326
     45 H          -2.9625   -0.0540   -2.1899 H       1  UNL1        0.0560
     46 H          -2.5587   -1.6058   -2.9164 H       1  UNL1        0.0560
     47 H           1.3078   -0.1407   -1.2918 H       1  UNL1        0.0814
     48 H           1.1438    1.2866   -0.2920 H       1  UNL1        0.0814
     49 H          -0.1162    1.6871    1.5581 H       1  UNL1        0.0636
     50 H          -0.4743    4.0985    1.4358 H       1  UNL1        0.0619
     51 H          -2.9333    3.4911   -1.8737 H       1  UNL1        0.0829
     52 H           2.2117   -1.9464    0.8757 H       1  UNL1        0.0873
     53 H           3.9283   -1.5689    0.7161 H       1  UNL1        0.0873
     54 H          -1.9103    5.0069   -0.3162 H       1  UNL1        0.0633
     55 H           3.2739   -4.3690   -3.3914 H       1  UNL1        0.0659
     56 H           2.7201   -2.1919   -4.5575 H       1  UNL1        0.0694
     57 H           3.2318   -5.0494    1.2833 H       1  UNL1        0.0660
     58 H           1.8601   -4.1813    0.6367 H       1  UNL1        0.0660
     59 H           3.2750   -3.3062    1.1708 H       1  UNL1        0.0660
@<TRIPOS>UNITY_ATOM_ATTR
6 1
charge 1
@<TRIPOS>BOND
     1     1    24   ar
     2     1    27   ar
     3     2    16    1
     4     3    12    1
     5     3    29    1
     6     4    25    1
     7     4    28    1
     8     5    17   ar
     9     5    21   ar
    10     6    18    1
    11     6    22    1
    12     6    30    1
    13     6    31    1
    14     7     2    1
    15     7     9    1
    16     7    10    1
    17     7    11    1
    18     8     9    1
    19     8    14    1
    20     8    15    1
    21     8    17    1
    22     9    32    1
    23     9    33    1
    24    10    12    1
    25    10    34    1
    26    10    35    1
    27    11    13    1
    28    11    36    1
    29    11    37    1
    30    12    13    1
    31    12    38    1
    32    13    39    1
    33    13    40    1
    34    14    16    1
    35    14    41    1
    36    14    42    1
    37    15    18    1
    38    15    43    1
    39    15    44    1
    40    16    45    1
    41    16    46    1
    42    17    19   ar
    43    18    47    1
    44    18    48    1
    45    19    20   ar
    46    19    49    1
    47    20    23   ar
    48    20    50    1
    49    21    23   ar
    50    21    51    1
    51    22    24    1
    52    22    52    1
    53    22    53    1
    54    23    54    1
    55    24    25   ar
    56    25    26   ar
    57    26    27   ar
    58    26    55    1
    59    27    56    1
    60    28    57    1
    61    28    58    1
    62    28    59    1
@<TRIPOS>MOLECULE
154925832
 59 62 0 0 0
SMALL
GASTEIGER

@<TRIPOS>ATOM
      1 S           2.6399   -0.9954   -2.4282 S.2     1  UNL1       -0.0926
      2 O          -3.4780   -1.7041   -1.1056 O.3     1  UNL1       -0.3732
      3 O          -6.8095   -1.7965    1.6320 O.3     1  UNL1       -0.3917
      4 O           3.4862   -4.3025   -0.6150 O.3     1  UNL1       -0.4941
      5 N          -0.9732    1.9188   -1.2513 N.ar    1  UNL1       -0.2593
      6 N           2.6511   -0.0149    0.2847 N.4     1  UNL1        0.2308
      7 C          -3.5817   -1.0970    0.1878 C.3     1  UNL1        0.0728
      8 C          -1.1415   -0.2325   -0.0614 C.3     1  UNL1        0.0224
      9 C          -2.1927   -0.9539    0.8332 C.3     1  UNL1       -0.0123
     10 C          -4.4808   -2.0092    1.0377 C.3     1  UNL1        0.0024
     11 C          -4.4284    0.1820    0.1498 C.3     1  UNL1       -0.0213
     12 C          -5.9002   -1.7207    0.5465 C.3     1  UNL1        0.0580
     13 C          -5.8625   -0.3127   -0.0491 C.3     1  UNL1       -0.0242
     14 C          -1.1858   -0.9535   -1.4364 C.3     1  UNL1       -0.0181
     15 C           0.2670   -0.4668    0.5390 C.3     1  UNL1       -0.0013
     16 C          -2.5969   -1.0429   -2.0073 C.3     1  UNL1        0.0492
     17 C          -1.3476    1.2945   -0.1120 C.ar    1  UNL1        0.0478
     18 C           1.3342    0.2337   -0.2898 C.3     1  UNL1       -0.0325
     19 C          -1.8934    1.9429    0.9841 C.ar    1  UNL1       -0.0398
     20 C          -2.0661    3.3204    0.9060 C.ar    1  UNL1       -0.0586
     21 C          -1.1561    3.2576   -1.2905 C.ar    1  UNL1        0.0279
     22 C           2.9533   -1.4392    0.2945 C.3     1  UNL1        0.0021
     23 C          -1.6928    3.9978   -0.2495 C.ar    1  UNL1       -0.0436
     24 C           2.9641   -2.0196   -1.0947 C.ar    1  UNL1        0.0756
     25 C           3.2063   -3.3178   -1.4868 C.ar    1  UNL1        0.1353
     26 C           3.1247   -3.4736   -2.9005 C.ar    1  UNL1       -0.0124
     27 C           2.8233   -2.2887   -3.5353 C.ar    1  UNL1       -0.0203
     28 C           3.0821   -5.6343   -0.9629 C.3     1  UNL1        0.0788
     29 H          -6.8125   -2.6984    1.9889 H       1  UNL1        0.2098
     30 H           2.6698    0.3370    1.2420 H       1  UNL1        0.2017
     31 H           3.3503    0.4627   -0.2841 H       1  UNL1        0.2017
     32 H          -1.8254   -1.9333    1.0585 H       1  UNL1        0.0302
     33 H          -2.3210   -0.3471    1.7051 H       1  UNL1        0.0302
     34 H          -4.3853   -1.7715    2.0766 H       1  UNL1        0.0318
     35 H          -4.2197   -3.0421    0.9381 H       1  UNL1        0.0318
     36 H          -4.1288    0.8097   -0.6633 H       1  UNL1        0.0294
     37 H          -4.3200    0.7679    1.0386 H       1  UNL1        0.0294
     38 H          -6.2264   -2.4315   -0.1837 H       1  UNL1        0.0594
     39 H          -6.1063   -0.3414   -1.0906 H       1  UNL1        0.0291
     40 H          -6.5727    0.3346    0.4216 H       1  UNL1        0.0291
     41 H          -0.8016   -1.9448   -1.3159 H       1  UNL1        0.0296
     42 H          -0.5952   -0.3814   -2.1211 H       1  UNL1        0.0296
     43 H           0.4702   -1.5172    0.5562 H       1  UNL1        0.0326
     44 H           0.2867   -0.0660    1.5309 H       1  UNL1        0.0326
     45 H          -2.9625   -0.0540   -2.1899 H       1  UNL1        0.0560
     46 H          -2.5587   -1.6058   -2.9164 H       1  UNL1        0.0560
     47 H           1.3078   -0.1407   -1.2918 H       1  UNL1        0.0814
     48 H           1.1438    1.2866   -0.2920 H       1  UNL1        0.0814
     49 H          -2.1633    1.4199    1.8319 H       1  UNL1        0.0636
     50 H          -2.4697    3.8380    1.7025 H       1  UNL1        0.0619
     51 H          -0.8790    3.7592   -2.1488 H       1  UNL1        0.0829
     52 H           2.2117   -1.9464    0.8757 H       1  UNL1        0.0873
     53 H           3.9283   -1.5689    0.7161 H       1  UNL1        0.0873
     54 H          -1.8117    5.0198   -0.3292 H       1  UNL1        0.0633
     55 H           3.2739   -4.3690   -3.3914 H       1  UNL1        0.0659
     56 H           2.7201   -2.1919   -4.5575 H       1  UNL1        0.0694
     57 H           3.3676   -6.3088   -0.1829 H       1  UNL1        0.0660
     58 H           3.5574   -5.9239   -1.8767 H       1  UNL1        0.0660
     59 H           2.0199   -5.6634   -1.0886 H       1  UNL1        0.0660
@<TRIPOS>UNITY_ATOM_ATTR
6 1
charge 1
@<TRIPOS>BOND
     1     1    24   ar
     2     1    27   ar
     3     2    16    1
     4     3    12    1
     5     3    29    1
     6     4    25    1
     7     4    28    1
     8     5    17   ar
     9     5    21   ar
    10     6    18    1
    11     6    22    1
    12     6    30    1
    13     6    31    1
    14     7     2    1
    15     7     9    1
    16     7    10    1
    17     7    11    1
    18     8     9    1
    19     8    14    1
    20     8    15    1
    21     8    17    1
    22     9    32    1
    23     9    33    1
    24    10    12    1
    25    10    34    1
    26    10    35    1
    27    11    13    1
    28    11    36    1
    29    11    37    1
    30    12    13    1
    31    12    38    1
    32    13    39    1
    33    13    40    1
    34    14    16    1
    35    14    41    1
    36    14    42    1
    37    15    18    1
    38    15    43    1
    39    15    44    1
    40    16    45    1
    41    16    46    1
    42    17    19   ar
    43    18    47    1
    44    18    48    1
    45    19    20   ar
    46    19    49    1
    47    20    23   ar
    48    20    50    1
    49    21    23   ar
    50    21    51    1
    51    22    24    1
    52    22    52    1
    53    22    53    1
    54    23    54    1
    55    24    25   ar
    56    25    26   ar
    57    26    27   ar
    58    26    55    1
    59    27    56    1
    60    28    57    1
    61    28    58    1
    62    28    59    1
@<TRIPOS>MOLECULE
154925832
 59 62 0 0 0
SMALL
GASTEIGER

@<TRIPOS>ATOM
      1 S           3.8650   -0.6910    4.3173 S.2     1  UNL1       -0.0926
      2 O          -3.4780   -1.7041   -1.1056 O.3     1  UNL1       -0.3732
      3 O          -6.8095   -1.7965    1.6320 O.3     1  UNL1       -0.3917
      4 O           4.0727   -3.7917    2.0189 O.3     1  UNL1       -0.4941
      5 N          -0.9732    1.9188   -1.2513 N.ar    1  UNL1       -0.2593
      6 N           1.9227   -2.1473    1.1614 N.4     1  UNL1        0.2308
      7 C          -3.5817   -1.0970    0.1878 C.3     1  UNL1        0.0728
      8 C          -1.1415   -0.2325   -0.0614 C.3     1  UNL1        0.0224
      9 C          -2.1927   -0.9539    0.8332 C.3     1  UNL1       -0.0123
     10 C          -4.4808   -2.0092    1.0377 C.3     1  UNL1        0.0024
     11 C          -4.4284    0.1820    0.1498 C.3     1  UNL1       -0.0213
     12 C          -5.9002   -1.7207    0.5465 C.3     1  UNL1        0.0580
     13 C          -5.8625   -0.3127   -0.0491 C.3     1  UNL1       -0.0242
     14 C          -1.1858   -0.9535   -1.4364 C.3     1  UNL1       -0.0181
     15 C           0.2670   -0.4668    0.5390 C.3     1  UNL1       -0.0013
     16 C          -2.5969   -1.0429   -2.0073 C.3     1  UNL1        0.0492
     17 C          -1.3476    1.2945   -0.1120 C.ar    1  UNL1        0.0478
     18 C           0.6009   -1.9512    0.5778 C.3     1  UNL1       -0.0325
     19 C          -1.8934    1.9429    0.9841 C.ar    1  UNL1       -0.0398
     20 C          -2.0661    3.3204    0.9060 C.ar    1  UNL1       -0.0586
     21 C          -1.1561    3.2576   -1.2905 C.ar    1  UNL1        0.0279
     22 C           1.9686   -1.6410    2.5258 C.3     1  UNL1        0.0021
     23 C          -1.6928    3.9978   -0.2495 C.ar    1  UNL1       -0.0436
     24 C           3.3302   -1.8174    3.1437 C.ar    1  UNL1        0.0756
     25 C           4.2689   -2.7961    2.9011 C.ar    1  UNL1        0.1353
     26 C           5.4423   -2.6189    3.6891 C.ar    1  UNL1       -0.0124
     27 C           5.3562   -1.5116    4.5041 C.ar    1  UNL1       -0.0203
     28 C           5.2248   -4.3277    1.3530 C.3     1  UNL1        0.0788
     29 H          -6.8125   -2.6984    1.9889 H       1  UNL1        0.2098
     30 H           2.6135   -1.6517    0.5979 H       1  UNL1        0.2017
     31 H           2.1268   -3.1466    1.1776 H       1  UNL1        0.2017
     32 H          -1.8254   -1.9333    1.0585 H       1  UNL1        0.0302
     33 H          -2.3210   -0.3471    1.7051 H       1  UNL1        0.0302
     34 H          -4.3853   -1.7715    2.0766 H       1  UNL1        0.0318
     35 H          -4.2197   -3.0421    0.9381 H       1  UNL1        0.0318
     36 H          -4.1288    0.8097   -0.6633 H       1  UNL1        0.0294
     37 H          -4.3200    0.7679    1.0386 H       1  UNL1        0.0294
     38 H          -6.2264   -2.4315   -0.1837 H       1  UNL1        0.0594
     39 H          -6.1063   -0.3414   -1.0906 H       1  UNL1        0.0291
     40 H          -6.5727    0.3346    0.4216 H       1  UNL1        0.0291
     41 H          -0.8016   -1.9448   -1.3159 H       1  UNL1        0.0296
     42 H          -0.5952   -0.3814   -2.1211 H       1  UNL1        0.0296
     43 H           0.2928   -0.0758    1.5346 H       1  UNL1        0.0326
     44 H           0.9878    0.0297   -0.0764 H       1  UNL1        0.0326
     45 H          -2.9625   -0.0540   -2.1899 H       1  UNL1        0.0560
     46 H          -2.5587   -1.6058   -2.9164 H       1  UNL1        0.0560
     47 H          -0.1281   -2.4635    1.1702 H       1  UNL1        0.0814
     48 H           0.5947   -2.3399   -0.4191 H       1  UNL1        0.0814
     49 H          -2.1633    1.4199    1.8319 H       1  UNL1        0.0636
     50 H          -2.4697    3.8380    1.7025 H       1  UNL1        0.0619
     51 H          -0.8790    3.7592   -2.1488 H       1  UNL1        0.0829
     52 H           1.2497   -2.1702    3.1158 H       1  UNL1        0.0873
     53 H           1.7494   -0.5940    2.4989 H       1  UNL1        0.0873
     54 H          -1.8117    5.0198   -0.3292 H       1  UNL1        0.0633
     55 H           6.2608   -3.2465    3.6537 H       1  UNL1        0.0659
     56 H           6.1024   -1.2120    5.1510 H       1  UNL1        0.0694
     57 H           4.9206   -5.1067    0.6856 H       1  UNL1        0.0660
     58 H           5.9036   -4.7244    2.0787 H       1  UNL1        0.0660
     59 H           5.7093   -3.5516    0.7982 H       1  UNL1        0.0660
@<TRIPOS>UNITY_ATOM_ATTR
6 1
charge 1
@<TRIPOS>BOND
     1     1    24   ar
     2     1    27   ar
     3     2    16    1
     4     3    12    1
     5     3    29    1
     6     4    25    1
     7     4    28    1
     8     5    17   ar
     9     5    21   ar
    10     6    18    1
    11     6    22    1
    12     6    30    1
    13     6    31    1
    14     7     2    1
    15     7     9    1
    16     7    10    1
    17     7    11    1
    18     8     9    1
    19     8    14    1
    20     8    15    1
    21     8    17    1
    22     9    32    1
    23     9    33    1
    24    10    12    1
    25    10    34    1
    26    10    35    1
    27    11    13    1
    28    11    36    1
    29    11    37    1
    30    12    13    1
    31    12    38    1
    32    13    39    1
    33    13    40    1
    34    14    16    1
    35    14    41    1
    36    14    42    1
    37    15    18    1
    38    15    43    1
    39    15    44    1
    40    16    45    1
    41    16    46    1
    42    17    19   ar
    43    18    47    1
    44    18    48    1
    45    19    20   ar
    46    19    49    1
    47    20    23   ar
    48    20    50    1
    49    21    23   ar
    50    21    51    1
    51    22    24    1
    52    22    52    1
    53    22    53    1
    54    23    54    1
    55    24    25   ar
    56    25    26   ar
    57    26    27   ar
    58    26    55    1
    59    27    56    1
    60    28    57    1
    61    28    58    1
    62    28    59    1
@<TRIPOS>MOLECULE
154925832
 59 62 0 0 0
SMALL
GASTEIGER

@<TRIPOS>ATOM
      1 S           3.5610   -2.0930    4.7524 S.2     1  UNL1       -0.0926
      2 O          -3.4780   -1.7041   -1.1056 O.3     1  UNL1       -0.3732
      3 O          -6.8095   -1.7965    1.6320 O.3     1  UNL1       -0.3917
      4 O           4.7215   -1.6651    1.0904 O.3     1  UNL1       -0.4941
      5 N          -0.9732    1.9188   -1.2513 N.ar    1  UNL1       -0.2593
      6 N           1.6860   -0.1462    2.4978 N.4     1  UNL1        0.2308
      7 C          -3.5817   -1.0970    0.1878 C.3     1  UNL1        0.0728
      8 C          -1.1415   -0.2325   -0.0614 C.3     1  UNL1        0.0224
      9 C          -2.1927   -0.9539    0.8332 C.3     1  UNL1       -0.0123
     10 C          -4.4808   -2.0092    1.0377 C.3     1  UNL1        0.0024
     11 C          -4.4284    0.1820    0.1498 C.3     1  UNL1       -0.0213
     12 C          -5.9002   -1.7207    0.5465 C.3     1  UNL1        0.0580
     13 C          -5.8625   -0.3127   -0.0491 C.3     1  UNL1       -0.0242
     14 C          -1.1858   -0.9535   -1.4364 C.3     1  UNL1       -0.0181
     15 C           0.2670   -0.4668    0.5390 C.3     1  UNL1       -0.0013
     16 C          -2.5969   -1.0429   -2.0073 C.3     1  UNL1        0.0492
     17 C          -1.3476    1.2945   -0.1120 C.ar    1  UNL1        0.0478
     18 C           0.3478    0.0706    1.9607 C.3     1  UNL1       -0.0325
     19 C          -1.8934    1.9429    0.9841 C.ar    1  UNL1       -0.0398
     20 C          -2.0661    3.3204    0.9060 C.ar    1  UNL1       -0.0586
     21 C          -1.1561    3.2576   -1.2905 C.ar    1  UNL1        0.0279
     22 C           2.0198   -1.5635    2.5046 C.3     1  UNL1        0.0021
     23 C          -1.6928    3.9978   -0.2495 C.ar    1  UNL1       -0.0436
     24 C           3.3920   -1.8134    3.0715 C.ar    1  UNL1        0.0756
     25 C           4.6032   -1.8545    2.4163 C.ar    1  UNL1        0.1353
     26 C           5.6839   -2.1193    3.3059 C.ar    1  UNL1       -0.0124
     27 C           5.2579   -2.2704    4.6073 C.ar    1  UNL1       -0.0203
     28 C           3.5229   -1.4089    0.3450 C.3     1  UNL1        0.0788
     29 H          -6.8125   -2.6984    1.9889 H       1  UNL1        0.2098
     30 H           1.7245    0.2105    3.4526 H       1  UNL1        0.2017
     31 H           2.3576    0.3440    1.9069 H       1  UNL1        0.2017
     32 H          -1.8254   -1.9333    1.0585 H       1  UNL1        0.0302
     33 H          -2.3210   -0.3471    1.7051 H       1  UNL1        0.0302
     34 H          -4.3853   -1.7715    2.0766 H       1  UNL1        0.0318
     35 H          -4.2197   -3.0421    0.9381 H       1  UNL1        0.0318
     36 H          -4.1288    0.8097   -0.6633 H       1  UNL1        0.0294
     37 H          -4.3200    0.7679    1.0386 H       1  UNL1        0.0294
     38 H          -6.2264   -2.4315   -0.1837 H       1  UNL1        0.0594
     39 H          -6.1063   -0.3414   -1.0906 H       1  UNL1        0.0291
     40 H          -6.5727    0.3346    0.4216 H       1  UNL1        0.0291
     41 H          -0.8016   -1.9448   -1.3159 H       1  UNL1        0.0296
     42 H          -0.5952   -0.3814   -2.1211 H       1  UNL1        0.0296
     43 H           0.9935    0.0336   -0.0665 H       1  UNL1        0.0326
     44 H           0.4588   -1.5192    0.5600 H       1  UNL1        0.0326
     45 H          -2.9625   -0.0540   -2.1899 H       1  UNL1        0.0560
     46 H          -2.5587   -1.6058   -2.9164 H       1  UNL1        0.0560
     47 H           0.1326    1.1188    1.9565 H       1  UNL1        0.0814
     48 H          -0.3647   -0.4424    2.5723 H       1  UNL1        0.0814
     49 H          -2.1633    1.4199    1.8319 H       1  UNL1        0.0636
     50 H          -2.4697    3.8380    1.7025 H       1  UNL1        0.0619
     51 H          -0.8790    3.7592   -2.1488 H       1  UNL1        0.0829
     52 H           1.9880   -1.9314    1.5003 H       1  UNL1        0.0873
     53 H           1.3080   -2.0692    3.1230 H       1  UNL1        0.0873
     54 H          -1.8117    5.0198   -0.3292 H       1  UNL1        0.0633
     55 H           6.6701   -2.1896    3.0102 H       1  UNL1        0.0659
     56 H           5.8873   -2.4672    5.4011 H       1  UNL1        0.0694
     57 H           3.7666   -1.2791   -0.6888 H       1  UNL1        0.0660
     58 H           3.0555   -0.5206    0.7156 H       1  UNL1        0.0660
     59 H           2.8525   -2.2359    0.4523 H       1  UNL1        0.0660
@<TRIPOS>UNITY_ATOM_ATTR
6 1
charge 1
@<TRIPOS>BOND
     1     1    24   ar
     2     1    27   ar
     3     2    16    1
     4     3    12    1
     5     3    29    1
     6     4    25    1
     7     4    28    1
     8     5    17   ar
     9     5    21   ar
    10     6    18    1
    11     6    22    1
    12     6    30    1
    13     6    31    1
    14     7     2    1
    15     7     9    1
    16     7    10    1
    17     7    11    1
    18     8     9    1
    19     8    14    1
    20     8    15    1
    21     8    17    1
    22     9    32    1
    23     9    33    1
    24    10    12    1
    25    10    34    1
    26    10    35    1
    27    11    13    1
    28    11    36    1
    29    11    37    1
    30    12    13    1
    31    12    38    1
    32    13    39    1
    33    13    40    1
    34    14    16    1
    35    14    41    1
    36    14    42    1
    37    15    18    1
    38    15    43    1
    39    15    44    1
    40    16    45    1
    41    16    46    1
    42    17    19   ar
    43    18    47    1
    44    18    48    1
    45    19    20   ar
    46    19    49    1
    47    20    23   ar
    48    20    50    1
    49    21    23   ar
    50    21    51    1
    51    22    24    1
    52    22    52    1
    53    22    53    1
    54    23    54    1
    55    24    25   ar
    56    25    26   ar
    57    26    27   ar
    58    26    55    1
    59    27    56    1
    60    28    57    1
    61    28    58    1
    62    28    59    1
@<TRIPOS>MOLECULE
154925832
 59 62 0 0 0
SMALL
GASTEIGER

@<TRIPOS>ATOM
      1 S           4.9036   -0.5465    2.1317 S.2     1  UNL1       -0.0926
      2 O          -3.4780   -1.7041   -1.1056 O.3     1  UNL1       -0.3732
      3 O          -6.8095   -1.7965    1.6320 O.3     1  UNL1       -0.3917
      4 O           4.9973   -3.6249   -0.2040 O.3     1  UNL1       -0.4941
      5 N          -0.6967    2.0248    0.8212 N.ar    1  UNL1       -0.2593
      6 N           1.9227   -2.1473    1.1614 N.4     1  UNL1        0.2308
      7 C          -3.5817   -1.0970    0.1878 C.3     1  UNL1        0.0728
      8 C          -1.1415   -0.2325   -0.0614 C.3     1  UNL1        0.0224
      9 C          -2.1927   -0.9539    0.8332 C.3     1  UNL1       -0.0123
     10 C          -4.4808   -2.0092    1.0377 C.3     1  UNL1        0.0024
     11 C          -4.4284    0.1820    0.1498 C.3     1  UNL1       -0.0213
     12 C          -5.9002   -1.7207    0.5465 C.3     1  UNL1        0.0580
     13 C          -5.8625   -0.3127   -0.0491 C.3     1  UNL1       -0.0242
     14 C          -1.1858   -0.9535   -1.4364 C.3     1  UNL1       -0.0181
     15 C           0.2670   -0.4668    0.5390 C.3     1  UNL1       -0.0013
     16 C          -2.5969   -1.0429   -2.0073 C.3     1  UNL1        0.0492
     17 C          -1.3476    1.2945   -0.1120 C.ar    1  UNL1        0.0478
     18 C           0.6009   -1.9512    0.5778 C.3     1  UNL1       -0.0325
     19 C          -2.1696    1.8370   -1.0866 C.ar    1  UNL1       -0.0398
     20 C          -2.3341    3.2176   -1.1046 C.ar    1  UNL1       -0.0586
     21 C          -0.8807    3.3631    0.7724 C.ar    1  UNL1        0.0279
     22 C           2.9408   -1.4501    0.3884 C.3     1  UNL1        0.0021
     23 C          -1.6810    4.0023   -0.1607 C.ar    1  UNL1       -0.0436
     24 C           4.3176   -1.6525    0.9631 C.ar    1  UNL1        0.0756
     25 C           5.2343   -2.6417    0.6822 C.ar    1  UNL1        0.1353
     26 C           6.4332   -2.4897    1.4363 C.ar    1  UNL1       -0.0124
     27 C           6.3876   -1.3902    2.2649 C.ar    1  UNL1       -0.0203
     28 C           6.0240   -4.6077   -0.3981 C.3     1  UNL1        0.0788
     29 H          -6.8125   -2.6984    1.9889 H       1  UNL1        0.2098
     30 H           2.1376   -3.1444    1.1741 H       1  UNL1        0.2017
     31 H           1.9192   -1.7714    2.1097 H       1  UNL1        0.2017
     32 H          -1.8254   -1.9333    1.0585 H       1  UNL1        0.0302
     33 H          -2.3210   -0.3471    1.7051 H       1  UNL1        0.0302
     34 H          -4.3853   -1.7715    2.0766 H       1  UNL1        0.0318
     35 H          -4.2197   -3.0421    0.9381 H       1  UNL1        0.0318
     36 H          -4.1288    0.8097   -0.6633 H       1  UNL1        0.0294
     37 H          -4.3200    0.7679    1.0386 H       1  UNL1        0.0294
     38 H          -6.2264   -2.4315   -0.1837 H       1  UNL1        0.0594
     39 H          -6.1063   -0.3414   -1.0906 H       1  UNL1        0.0291
     40 H          -6.5727    0.3346    0.4216 H       1  UNL1        0.0291
     41 H          -0.8016   -1.9448   -1.3159 H       1  UNL1        0.0296
     42 H          -0.5952   -0.3814   -2.1211 H       1  UNL1        0.0296
     43 H           0.2928   -0.0758    1.5346 H       1  UNL1        0.0326
     44 H           0.9878    0.0297   -0.0764 H       1  UNL1        0.0326
     45 H          -2.9625   -0.0540   -2.1899 H       1  UNL1        0.0560
     46 H          -2.5587   -1.6058   -2.9164 H       1  UNL1        0.0560
     47 H          -0.1281   -2.4635    1.1702 H       1  UNL1        0.0814
     48 H           0.5947   -2.3399   -0.4191 H       1  UNL1        0.0814
     49 H          -2.6448    1.2353   -1.7775 H       1  UNL1        0.0636
     50 H          -2.9386    3.6581   -1.8157 H       1  UNL1        0.0619
     51 H          -0.3952    3.9445    1.4733 H       1  UNL1        0.0829
     52 H           2.7172   -0.4037    0.3858 H       1  UNL1        0.0873
     53 H           2.9338   -1.8481   -0.6049 H       1  UNL1        0.0873
     54 H          -1.7889    5.0286   -0.1553 H       1  UNL1        0.0633
     55 H           7.2411   -3.1284    1.3697 H       1  UNL1        0.0659
     56 H           7.1571   -1.1082    2.8921 H       1  UNL1        0.0694
     57 H           5.7004   -5.3228   -1.1254 H       1  UNL1        0.0660
     58 H           6.2210   -5.1054    0.5284 H       1  UNL1        0.0660
     59 H           6.9166   -4.1281   -0.7420 H       1  UNL1        0.0660
@<TRIPOS>UNITY_ATOM_ATTR
6 1
charge 1
@<TRIPOS>BOND
     1     1    24   ar
     2     1    27   ar
     3     2    16    1
     4     3    12    1
     5     3    29    1
     6     4    25    1
     7     4    28    1
     8     5    17   ar
     9     5    21   ar
    10     6    18    1
    11     6    22    1
    12     6    30    1
    13     6    31    1
    14     7     2    1
    15     7     9    1
    16     7    10    1
    17     7    11    1
    18     8     9    1
    19     8    14    1
    20     8    15    1
    21     8    17    1
    22     9    32    1
    23     9    33    1
    24    10    12    1
    25    10    34    1
    26    10    35    1
    27    11    13    1
    28    11    36    1
    29    11    37    1
    30    12    13    1
    31    12    38    1
    32    13    39    1
    33    13    40    1
    34    14    16    1
    35    14    41    1
    36    14    42    1
    37    15    18    1
    38    15    43    1
    39    15    44    1
    40    16    45    1
    41    16    46    1
    42    17    19   ar
    43    18    47    1
    44    18    48    1
    45    19    20   ar
    46    19    49    1
    47    20    23   ar
    48    20    50    1
    49    21    23   ar
    50    21    51    1
    51    22    24    1
    52    22    52    1
    53    22    53    1
    54    23    54    1
    55    24    25   ar
    56    25    26   ar
    57    26    27   ar
    58    26    55    1
    59    27    56    1
    60    28    57    1
    61    28    58    1
    62    28    59    1
@<TRIPOS>MOLECULE
154925832
 59 62 0 0 0
SMALL
GASTEIGER

@<TRIPOS>ATOM
      1 S           5.6434   -1.2051    0.1573 S.2     1  UNL1       -0.0926
      2 O          -3.4780   -1.7041   -1.1056 O.3     1  UNL1       -0.3732
      3 O          -6.8095   -1.7965    1.6320 O.3     1  UNL1       -0.3917
      4 O           5.7388    2.6309    0.6224 O.3     1  UNL1       -0.4941
      5 N          -1.8975    1.8680    0.9819 N.ar    1  UNL1       -0.2593
      6 N           2.6511   -0.0149    0.2847 N.4     1  UNL1        0.2308
      7 C          -3.5817   -1.0970    0.1878 C.3     1  UNL1        0.0728
      8 C          -1.1415   -0.2325   -0.0614 C.3     1  UNL1        0.0224
      9 C          -2.1927   -0.9539    0.8332 C.3     1  UNL1       -0.0123
     10 C          -4.4808   -2.0092    1.0377 C.3     1  UNL1        0.0024
     11 C          -4.4284    0.1820    0.1498 C.3     1  UNL1       -0.0213
     12 C          -5.9002   -1.7207    0.5465 C.3     1  UNL1        0.0580
     13 C          -5.8625   -0.3127   -0.0491 C.3     1  UNL1       -0.0242
     14 C          -1.1858   -0.9535   -1.4364 C.3     1  UNL1       -0.0181
     15 C           0.2670   -0.4668    0.5390 C.3     1  UNL1       -0.0013
     16 C          -2.5969   -1.0429   -2.0073 C.3     1  UNL1        0.0492
     17 C          -1.3476    1.2945   -0.1120 C.ar    1  UNL1        0.0478
     18 C           1.3342    0.2337   -0.2898 C.3     1  UNL1       -0.0325
     19 C          -0.9698    1.9936   -1.2471 C.ar    1  UNL1       -0.0398
     20 C          -1.1692    3.3697   -1.2603 C.ar    1  UNL1       -0.0586
     21 C          -2.0760    3.2071    0.9324 C.ar    1  UNL1        0.0279
     22 C           3.6886    0.6598   -0.4825 C.3     1  UNL1        0.0021
     23 C          -1.7324    3.9956   -0.1539 C.ar    1  UNL1       -0.0436
     24 C           5.0602    0.4032    0.0828 C.ar    1  UNL1        0.0756
     25 C           5.9733    1.3076    0.5790 C.ar    1  UNL1        0.1353
     26 C           7.1672    0.6719    1.0260 C.ar    1  UNL1       -0.0124
     27 C           7.1215   -0.6943    0.8546 C.ar    1  UNL1       -0.0203
     28 C           6.8656    3.5108    0.5034 C.3     1  UNL1        0.0788
     29 H          -6.8125   -2.6984    1.9889 H       1  UNL1        0.2098
     30 H           2.8328   -1.0186    0.2815 H       1  UNL1        0.2017
     31 H           2.6641    0.3464    1.2385 H       1  UNL1        0.2017
     32 H          -1.8254   -1.9333    1.0585 H       1  UNL1        0.0302
     33 H          -2.3210   -0.3471    1.7051 H       1  UNL1        0.0302
     34 H          -4.3853   -1.7715    2.0766 H       1  UNL1        0.0318
     35 H          -4.2197   -3.0421    0.9381 H       1  UNL1        0.0318
     36 H          -4.1288    0.8097   -0.6633 H       1  UNL1        0.0294
     37 H          -4.3200    0.7679    1.0386 H       1  UNL1        0.0294
     38 H          -6.2264   -2.4315   -0.1837 H       1  UNL1        0.0594
     39 H          -6.1063   -0.3414   -1.0906 H       1  UNL1        0.0291
     40 H          -6.5727    0.3346    0.4216 H       1  UNL1        0.0291
     41 H          -0.8016   -1.9448   -1.3159 H       1  UNL1        0.0296
     42 H          -0.5952   -0.3814   -2.1211 H       1  UNL1        0.0296
     43 H           0.4702   -1.5172    0.5562 H       1  UNL1        0.0326
     44 H           0.2867   -0.0660    1.5309 H       1  UNL1        0.0326
     45 H          -2.9625   -0.0540   -2.1899 H       1  UNL1        0.0560
     46 H          -2.5587   -1.6058   -2.9164 H       1  UNL1        0.0560
     47 H           1.3078   -0.1407   -1.2918 H       1  UNL1        0.0814
     48 H           1.1438    1.2866   -0.2920 H       1  UNL1        0.0814
     49 H          -0.5535    1.5083   -2.0572 H       1  UNL1        0.0636
     50 H          -0.9002    3.9242   -2.0881 H       1  UNL1        0.0619
     51 H          -2.4939    3.6706    1.7543 H       1  UNL1        0.0829
     52 H           3.4999    1.7129   -0.4683 H       1  UNL1        0.0873
     53 H           3.6643    0.2774   -1.4815 H       1  UNL1        0.0873
     54 H          -1.8897    5.0155   -0.1421 H       1  UNL1        0.0633
     55 H           7.9719    1.1756    1.4306 H       1  UNL1        0.0659
     56 H           7.8877   -1.3343    1.1157 H       1  UNL1        0.0694
     57 H           6.5321    4.5263    0.5544 H       1  UNL1        0.0660
     58 H           7.3525    3.3419   -0.4343 H       1  UNL1        0.0660
     59 H           7.5526    3.3205    1.3013 H       1  UNL1        0.0660
@<TRIPOS>UNITY_ATOM_ATTR
6 1
charge 1
@<TRIPOS>BOND
     1     1    24   ar
     2     1    27   ar
     3     2    16    1
     4     3    12    1
     5     3    29    1
     6     4    25    1
     7     4    28    1
     8     5    17   ar
     9     5    21   ar
    10     6    18    1
    11     6    22    1
    12     6    30    1
    13     6    31    1
    14     7     2    1
    15     7     9    1
    16     7    10    1
    17     7    11    1
    18     8     9    1
    19     8    14    1
    20     8    15    1
    21     8    17    1
    22     9    32    1
    23     9    33    1
    24    10    12    1
    25    10    34    1
    26    10    35    1
    27    11    13    1
    28    11    36    1
    29    11    37    1
    30    12    13    1
    31    12    38    1
    32    13    39    1
    33    13    40    1
    34    14    16    1
    35    14    41    1
    36    14    42    1
    37    15    18    1
    38    15    43    1
    39    15    44    1
    40    16    45    1
    41    16    46    1
    42    17    19   ar
    43    18    47    1
    44    18    48    1
    45    19    20   ar
    46    19    49    1
    47    20    23   ar
    48    20    50    1
    49    21    23   ar
    50    21    51    1
    51    22    24    1
    52    22    52    1
    53    22    53    1
    54    23    54    1
    55    24    25   ar
    56    25    26   ar
    57    26    27   ar
    58    26    55    1
    59    27    56    1
    60    28    57    1
    61    28    58    1
    62    28    59    1
@<TRIPOS>MOLECULE
154925832
 59 62 0 0 0
SMALL
GASTEIGER

@<TRIPOS>ATOM
      1 S           0.1476   -3.6120    2.5835 S.2     1  UNL1       -0.0926
      2 O          -3.4780   -1.7041   -1.1056 O.3     1  UNL1       -0.3732
      3 O          -6.8095   -1.7965    1.6320 O.3     1  UNL1       -0.3917
      4 O           1.3392   -1.3344    5.4701 O.3     1  UNL1       -0.4941
      5 N          -1.5809    1.8341   -1.3295 N.ar    1  UNL1       -0.2593
      6 N           1.6860   -0.1462    2.4978 N.4     1  UNL1        0.2308
      7 C          -3.5817   -1.0970    0.1878 C.3     1  UNL1        0.0728
      8 C          -1.1415   -0.2325   -0.0614 C.3     1  UNL1        0.0224
      9 C          -2.1927   -0.9539    0.8332 C.3     1  UNL1       -0.0123
     10 C          -4.4808   -2.0092    1.0377 C.3     1  UNL1        0.0024
     11 C          -4.4284    0.1820    0.1498 C.3     1  UNL1       -0.0213
     12 C          -5.9002   -1.7207    0.5465 C.3     1  UNL1        0.0580
     13 C          -5.8625   -0.3127   -0.0491 C.3     1  UNL1       -0.0242
     14 C          -1.1858   -0.9535   -1.4364 C.3     1  UNL1       -0.0181
     15 C           0.2670   -0.4668    0.5390 C.3     1  UNL1       -0.0013
     16 C          -2.5969   -1.0429   -2.0073 C.3     1  UNL1        0.0492
     17 C          -1.3476    1.2945   -0.1120 C.ar    1  UNL1        0.0478
     18 C           0.3478    0.0706    1.9607 C.3     1  UNL1       -0.0325
     19 C          -1.2863    2.0274    1.0623 C.ar    1  UNL1       -0.0398
     20 C          -1.4765    3.4025    0.9819 C.ar    1  UNL1       -0.0586
     21 C          -1.7610    3.1734   -1.3683 C.ar    1  UNL1        0.0279
     22 C           2.0198   -1.5635    2.5046 C.3     1  UNL1        0.0021
     23 C          -1.7188    3.9942   -0.2528 C.ar    1  UNL1       -0.0436
     24 C           1.0497   -2.3639    3.3322 C.ar    1  UNL1        0.0756
     25 C           0.7542   -2.2452    4.6725 C.ar    1  UNL1        0.1353
     26 C          -0.2254   -3.1914    5.0901 C.ar    1  UNL1       -0.0124
     27 C          -0.6417   -3.9974    4.0533 C.ar    1  UNL1       -0.0203
     28 C           1.5072   -1.6717    6.8542 C.3     1  UNL1        0.0788
     29 H          -6.8125   -2.6984    1.9889 H       1  UNL1        0.2098
     30 H           1.7245    0.2105    3.4526 H       1  UNL1        0.2017
     31 H           2.3576    0.3440    1.9069 H       1  UNL1        0.2017
     32 H          -1.8254   -1.9333    1.0585 H       1  UNL1        0.0302
     33 H          -2.3210   -0.3471    1.7051 H       1  UNL1        0.0302
     34 H          -4.3853   -1.7715    2.0766 H       1  UNL1        0.0318
     35 H          -4.2197   -3.0421    0.9381 H       1  UNL1        0.0318
     36 H          -4.1288    0.8097   -0.6633 H       1  UNL1        0.0294
     37 H          -4.3200    0.7679    1.0386 H       1  UNL1        0.0294
     38 H          -6.2264   -2.4315   -0.1837 H       1  UNL1        0.0594
     39 H          -6.1063   -0.3414   -1.0906 H       1  UNL1        0.0291
     40 H          -6.5727    0.3346    0.4216 H       1  UNL1        0.0291
     41 H          -0.8016   -1.9448   -1.3159 H       1  UNL1        0.0296
     42 H          -0.5952   -0.3814   -2.1211 H       1  UNL1        0.0296
     43 H           0.9935    0.0336   -0.0665 H       1  UNL1        0.0326
     44 H           0.4588   -1.5192    0.5600 H       1  UNL1        0.0326
     45 H          -2.9625   -0.0540   -2.1899 H       1  UNL1        0.0560
     46 H          -2.5587   -1.6058   -2.9164 H       1  UNL1        0.0560
     47 H           0.1326    1.1188    1.9565 H       1  UNL1        0.0814
     48 H          -0.3647   -0.4424    2.5723 H       1  UNL1        0.0814
     49 H          -1.1050    1.5672    1.9681 H       1  UNL1        0.0636
     50 H          -1.4382    3.9816    1.8353 H       1  UNL1        0.0619
     51 H          -1.9410    3.6113   -2.2852 H       1  UNL1        0.0829
     52 H           3.0028   -1.6855    2.9093 H       1  UNL1        0.0873
     53 H           1.9707   -1.9209    1.4972 H       1  UNL1        0.0873
     54 H          -1.8627    5.0127   -0.3358 H       1  UNL1        0.0633
     55 H          -0.5815   -3.2645    6.0560 H       1  UNL1        0.0659
     56 H          -1.3461   -4.7452    4.1510 H       1  UNL1        0.0694
     57 H           1.9826   -0.8598    7.3640 H       1  UNL1        0.0660
     58 H           2.1144   -2.5489    6.9363 H       1  UNL1        0.0660
     59 H           0.5501   -1.8580    7.2947 H       1  UNL1        0.0660
@<TRIPOS>UNITY_ATOM_ATTR
6 1
charge 1
@<TRIPOS>BOND
     1     1    24   ar
     2     1    27   ar
     3     2    16    1
     4     3    12    1
     5     3    29    1
     6     4    25    1
     7     4    28    1
     8     5    17   ar
     9     5    21   ar
    10     6    18    1
    11     6    22    1
    12     6    30    1
    13     6    31    1
    14     7     2    1
    15     7     9    1
    16     7    10    1
    17     7    11    1
    18     8     9    1
    19     8    14    1
    20     8    15    1
    21     8    17    1
    22     9    32    1
    23     9    33    1
    24    10    12    1
    25    10    34    1
    26    10    35    1
    27    11    13    1
    28    11    36    1
    29    11    37    1
    30    12    13    1
    31    12    38    1
    32    13    39    1
    33    13    40    1
    34    14    16    1
    35    14    41    1
    36    14    42    1
    37    15    18    1
    38    15    43    1
    39    15    44    1
    40    16    45    1
    41    16    46    1
    42    17    19   ar
    43    18    47    1
    44    18    48    1
    45    19    20   ar
    46    19    49    1
    47    20    23   ar
    48    20    50    1
    49    21    23   ar
    50    21    51    1
    51    22    24    1
    52    22    52    1
    53    22    53    1
    54    23    54    1
    55    24    25   ar
    56    25    26   ar
    57    26    27   ar
    58    26    55    1
    59    27    56    1
    60    28    57    1
    61    28    58    1
    62    28    59    1
@<TRIPOS>MOLECULE
154925832
 59 62 0 0 0
SMALL
GASTEIGER

@<TRIPOS>ATOM
      1 S           2.1775    2.8182    0.1834 S.2     1  UNL1       -0.0926
      2 O          -3.4780   -1.7041   -1.1056 O.3     1  UNL1       -0.3732
      3 O          -6.8095   -1.7965    1.6320 O.3     1  UNL1       -0.3917
      4 O           2.6249    2.5352    4.0122 O.3     1  UNL1       -0.4941
      5 N          -2.6158    1.7397    0.0344 N.ar    1  UNL1       -0.2593
      6 N           1.6860   -0.1462    2.4978 N.4     1  UNL1        0.2308
      7 C          -3.5817   -1.0970    0.1878 C.3     1  UNL1        0.0728
      8 C          -1.1415   -0.2325   -0.0614 C.3     1  UNL1        0.0224
      9 C          -2.1927   -0.9539    0.8332 C.3     1  UNL1       -0.0123
     10 C          -4.4808   -2.0092    1.0377 C.3     1  UNL1        0.0024
     11 C          -4.4284    0.1820    0.1498 C.3     1  UNL1       -0.0213
     12 C          -5.9002   -1.7207    0.5465 C.3     1  UNL1        0.0580
     13 C          -5.8625   -0.3127   -0.0491 C.3     1  UNL1       -0.0242
     14 C          -1.1858   -0.9535   -1.4364 C.3     1  UNL1       -0.0181
     15 C           0.2670   -0.4668    0.5390 C.3     1  UNL1       -0.0013
     16 C          -2.5969   -1.0429   -2.0073 C.3     1  UNL1        0.0492
     17 C          -1.3476    1.2945   -0.1120 C.ar    1  UNL1        0.0478
     18 C           0.3478    0.0706    1.9607 C.3     1  UNL1       -0.0325
     19 C          -0.2522    2.1219   -0.3004 C.ar    1  UNL1       -0.0398
     20 C          -0.4725    3.4942   -0.3412 C.ar    1  UNL1       -0.0586
     21 C          -2.7910    3.0793   -0.0106 C.ar    1  UNL1        0.0279
     22 C           2.6856    0.5476    1.6980 C.3     1  UNL1        0.0021
     23 C          -1.7631    3.9901   -0.1945 C.ar    1  UNL1       -0.0436
     24 C           2.4556    2.0354    1.6807 C.ar    1  UNL1        0.0756
     25 C           2.4328    2.9185    2.7378 C.ar    1  UNL1        0.1353
     26 C           2.1836    4.2552    2.3129 C.ar    1  UNL1       -0.0124
     27 C           2.0254    4.3432    0.9472 C.ar    1  UNL1       -0.0203
     28 C           2.2268    1.2054    4.3744 C.3     1  UNL1        0.0788
     29 H          -6.8125   -2.6984    1.9889 H       1  UNL1        0.2098
     30 H           1.8897   -1.1457    2.4933 H       1  UNL1        0.2017
     31 H           1.7184    0.2198    3.4493 H       1  UNL1        0.2017
     32 H          -1.8254   -1.9333    1.0585 H       1  UNL1        0.0302
     33 H          -2.3210   -0.3471    1.7051 H       1  UNL1        0.0302
     34 H          -4.3853   -1.7715    2.0766 H       1  UNL1        0.0318
     35 H          -4.2197   -3.0421    0.9381 H       1  UNL1        0.0318
     36 H          -4.1288    0.8097   -0.6633 H       1  UNL1        0.0294
     37 H          -4.3200    0.7679    1.0386 H       1  UNL1        0.0294
     38 H          -6.2264   -2.4315   -0.1837 H       1  UNL1        0.0594
     39 H          -6.1063   -0.3414   -1.0906 H       1  UNL1        0.0291
     40 H          -6.5727    0.3346    0.4216 H       1  UNL1        0.0291
     41 H          -0.8016   -1.9448   -1.3159 H       1  UNL1        0.0296
     42 H          -0.5952   -0.3814   -2.1211 H       1  UNL1        0.0296
     43 H           0.9935    0.0336   -0.0665 H       1  UNL1        0.0326
     44 H           0.4588   -1.5192    0.5600 H       1  UNL1        0.0326
     45 H          -2.9625   -0.0540   -2.1899 H       1  UNL1        0.0560
     46 H          -2.5587   -1.6058   -2.9164 H       1  UNL1        0.0560
     47 H           0.1326    1.1188    1.9565 H       1  UNL1        0.0814
     48 H          -0.3647   -0.4424    2.5723 H       1  UNL1        0.0814
     49 H           0.6973    1.7318   -0.4072 H       1  UNL1        0.0636
     50 H           0.3188    4.1420   -0.4797 H       1  UNL1        0.0619
     51 H          -3.7493    3.4463    0.0987 H       1  UNL1        0.0829
     52 H           2.6425    0.1790    0.6944 H       1  UNL1        0.0873
     53 H           3.6452    0.3650    2.1348 H       1  UNL1        0.0873
     54 H          -1.9497    5.0047   -0.2217 H       1  UNL1        0.0633
     55 H           2.1280    5.0628    2.9530 H       1  UNL1        0.0659
     56 H           1.8374    5.2242    0.4439 H       1  UNL1        0.0694
     57 H           2.4371    1.0399    5.4105 H       1  UNL1        0.0660
     58 H           2.7687    0.4974    3.7830 H       1  UNL1        0.0660
     59 H           1.1778    1.0871    4.2001 H       1  UNL1        0.0660
@<TRIPOS>UNITY_ATOM_ATTR
6 1
charge 1
@<TRIPOS>BOND
     1     1    24   ar
     2     1    27   ar
     3     2    16    1
     4     3    12    1
     5     3    29    1
     6     4    25    1
     7     4    28    1
     8     5    17   ar
     9     5    21   ar
    10     6    18    1
    11     6    22    1
    12     6    30    1
    13     6    31    1
    14     7     2    1
    15     7     9    1
    16     7    10    1
    17     7    11    1
    18     8     9    1
    19     8    14    1
    20     8    15    1
    21     8    17    1
    22     9    32    1
    23     9    33    1
    24    10    12    1
    25    10    34    1
    26    10    35    1
    27    11    13    1
    28    11    36    1
    29    11    37    1
    30    12    13    1
    31    12    38    1
    32    13    39    1
    33    13    40    1
    34    14    16    1
    35    14    41    1
    36    14    42    1
    37    15    18    1
    38    15    43    1
    39    15    44    1
    40    16    45    1
    41    16    46    1
    42    17    19   ar
    43    18    47    1
    44    18    48    1
    45    19    20   ar
    46    19    49    1
    47    20    23   ar
    48    20    50    1
    49    21    23   ar
    50    21    51    1
    51    22    24    1
    52    22    52    1
    53    22    53    1
    54    23    54    1
    55    24    25   ar
    56    25    26   ar
    57    26    27   ar
    58    26    55    1
    59    27    56    1
    60    28    57    1
    61    28    58    1
    62    28    59    1
@<TRIPOS>MOLECULE
154925832
 59 62 0 0 0
SMALL
GASTEIGER

@<TRIPOS>ATOM
      1 S           3.0728   -1.5246   -0.0640 S.2     1  UNL1       -0.0926
      2 O          -3.4780   -1.7041   -1.1056 O.3     1  UNL1       -0.3732
      3 O          -6.8095   -1.7965    1.6320 O.3     1  UNL1       -0.3917
      4 O           0.3048   -3.8141    1.3631 O.3     1  UNL1       -0.4941
      5 N          -2.3814    1.7902    0.6045 N.ar    1  UNL1       -0.2593
      6 N           1.6860   -0.1462    2.4978 N.4     1  UNL1        0.2308
      7 C          -3.5817   -1.0970    0.1878 C.3     1  UNL1        0.0728
      8 C          -1.1415   -0.2325   -0.0614 C.3     1  UNL1        0.0224
      9 C          -2.1927   -0.9539    0.8332 C.3     1  UNL1       -0.0123
     10 C          -4.4808   -2.0092    1.0377 C.3     1  UNL1        0.0024
     11 C          -4.4284    0.1820    0.1498 C.3     1  UNL1       -0.0213
     12 C          -5.9002   -1.7207    0.5465 C.3     1  UNL1        0.0580
     13 C          -5.8625   -0.3127   -0.0491 C.3     1  UNL1       -0.0242
     14 C          -1.1858   -0.9535   -1.4364 C.3     1  UNL1       -0.0181
     15 C           0.2670   -0.4668    0.5390 C.3     1  UNL1       -0.0013
     16 C          -2.5969   -1.0429   -2.0073 C.3     1  UNL1        0.0492
     17 C          -1.3476    1.2945   -0.1120 C.ar    1  UNL1        0.0478
     18 C           0.3478    0.0706    1.9607 C.3     1  UNL1       -0.0325
     19 C          -0.4864    2.0714   -0.8701 C.ar    1  UNL1       -0.0398
     20 C          -0.6998    3.4452   -0.8943 C.ar    1  UNL1       -0.0586
     21 C          -2.5576    3.1296    0.5569 C.ar    1  UNL1        0.0279
     22 C           2.0198   -1.5635    2.5046 C.3     1  UNL1        0.0021
     23 C          -1.7531    3.9923   -0.1700 C.ar    1  UNL1       -0.0436
     24 C           2.0034   -2.1500    1.1180 C.ar    1  UNL1        0.0756
     25 C           1.2196   -3.1673    0.6195 C.ar    1  UNL1        0.1353
     26 C           1.5009   -3.4370   -0.7507 C.ar    1  UNL1       -0.0124
     27 C           2.4889   -2.6155   -1.2476 C.ar    1  UNL1       -0.0203
     28 C           0.5499   -3.9244    2.7722 C.3     1  UNL1        0.0788
     29 H          -6.8125   -2.6984    1.9889 H       1  UNL1        0.2098
     30 H           1.7245    0.2105    3.4526 H       1  UNL1        0.2017
     31 H           2.3576    0.3440    1.9069 H       1  UNL1        0.2017
     32 H          -1.8254   -1.9333    1.0585 H       1  UNL1        0.0302
     33 H          -2.3210   -0.3471    1.7051 H       1  UNL1        0.0302
     34 H          -4.3853   -1.7715    2.0766 H       1  UNL1        0.0318
     35 H          -4.2197   -3.0421    0.9381 H       1  UNL1        0.0318
     36 H          -4.1288    0.8097   -0.6633 H       1  UNL1        0.0294
     37 H          -4.3200    0.7679    1.0386 H       1  UNL1        0.0294
     38 H          -6.2264   -2.4315   -0.1837 H       1  UNL1        0.0594
     39 H          -6.1063   -0.3414   -1.0906 H       1  UNL1        0.0291
     40 H          -6.5727    0.3346    0.4216 H       1  UNL1        0.0291
     41 H          -0.8016   -1.9448   -1.3159 H       1  UNL1        0.0296
     42 H          -0.5952   -0.3814   -2.1211 H       1  UNL1        0.0296
     43 H           0.9935    0.0336   -0.0665 H       1  UNL1        0.0326
     44 H           0.4588   -1.5192    0.5600 H       1  UNL1        0.0326
     45 H          -2.9625   -0.0540   -2.1899 H       1  UNL1        0.0560
     46 H          -2.5587   -1.6058   -2.9164 H       1  UNL1        0.0560
     47 H           0.1326    1.1188    1.9565 H       1  UNL1        0.0814
     48 H          -0.3647   -0.4424    2.5723 H       1  UNL1        0.0814
     49 H           0.2891    1.6438   -1.4000 H       1  UNL1        0.0636
     50 H          -0.0789    4.0563   -1.4475 H       1  UNL1        0.0619
     51 H          -3.3396    3.5346    1.0950 H       1  UNL1        0.0829
     52 H           1.3067   -2.0841    3.1091 H       1  UNL1        0.0873
     53 H           3.0092   -1.6695    2.8982 H       1  UNL1        0.0873
     54 H          -1.9302    5.0089   -0.1738 H       1  UNL1        0.0633
     55 H           1.0210   -4.1625   -1.3059 H       1  UNL1        0.0659
     56 H           2.8362   -2.6532   -2.2187 H       1  UNL1        0.0694
     57 H          -0.2543   -4.4590    3.2333 H       1  UNL1        0.0660
     58 H           0.6193   -2.9460    3.1998 H       1  UNL1        0.0660
     59 H           1.4673   -4.4505    2.9346 H       1  UNL1        0.0660
@<TRIPOS>UNITY_ATOM_ATTR
6 1
charge 1
@<TRIPOS>BOND
     1     1    24   ar
     2     1    27   ar
     3     2    16    1
     4     3    12    1
     5     3    29    1
     6     4    25    1
     7     4    28    1
     8     5    17   ar
     9     5    21   ar
    10     6    18    1
    11     6    22    1
    12     6    30    1
    13     6    31    1
    14     7     2    1
    15     7     9    1
    16     7    10    1
    17     7    11    1
    18     8     9    1
    19     8    14    1
    20     8    15    1
    21     8    17    1
    22     9    32    1
    23     9    33    1
    24    10    12    1
    25    10    34    1
    26    10    35    1
    27    11    13    1
    28    11    36    1
    29    11    37    1
    30    12    13    1
    31    12    38    1
    32    13    39    1
    33    13    40    1
    34    14    16    1
    35    14    41    1
    36    14    42    1
    37    15    18    1
    38    15    43    1
    39    15    44    1
    40    16    45    1
    41    16    46    1
    42    17    19   ar
    43    18    47    1
    44    18    48    1
    45    19    20   ar
    46    19    49    1
    47    20    23   ar
    48    20    50    1
    49    21    23   ar
    50    21    51    1
    51    22    24    1
    52    22    52    1
    53    22    53    1
    54    23    54    1
    55    24    25   ar
    56    25    26   ar
    57    26    27   ar
    58    26    55    1
    59    27    56    1
    60    28    57    1
    61    28    58    1
    62    28    59    1
@<TRIPOS>MOLECULE
154925832
 59 62 0 0 0
SMALL
GASTEIGER

@<TRIPOS>ATOM
      1 S           1.1204    2.4928    2.6835 S.2     1  UNL1       -0.0926
      2 O          -3.4780   -1.7041   -1.1056 O.3     1  UNL1       -0.3732
      3 O          -6.8095   -1.7965    1.6320 O.3     1  UNL1       -0.3917
      4 O           4.2016    2.8056    0.3707 O.3     1  UNL1       -0.4941
      5 N          -0.6967    2.0248    0.8212 N.ar    1  UNL1       -0.2593
      6 N           2.6511   -0.0149    0.2847 N.4     1  UNL1        0.2308
      7 C          -3.5817   -1.0970    0.1878 C.3     1  UNL1        0.0728
      8 C          -1.1415   -0.2325   -0.0614 C.3     1  UNL1        0.0224
      9 C          -2.1927   -0.9539    0.8332 C.3     1  UNL1       -0.0123
     10 C          -4.4808   -2.0092    1.0377 C.3     1  UNL1        0.0024
     11 C          -4.4284    0.1820    0.1498 C.3     1  UNL1       -0.0213
     12 C          -5.9002   -1.7207    0.5465 C.3     1  UNL1        0.0580
     13 C          -5.8625   -0.3127   -0.0491 C.3     1  UNL1       -0.0242
     14 C          -1.1858   -0.9535   -1.4364 C.3     1  UNL1       -0.0181
     15 C           0.2670   -0.4668    0.5390 C.3     1  UNL1       -0.0013
     16 C          -2.5969   -1.0429   -2.0073 C.3     1  UNL1        0.0492
     17 C          -1.3476    1.2945   -0.1120 C.ar    1  UNL1        0.0478
     18 C           1.3342    0.2337   -0.2898 C.3     1  UNL1       -0.0325
     19 C          -2.1696    1.8370   -1.0866 C.ar    1  UNL1       -0.0398
     20 C          -2.3341    3.2176   -1.1046 C.ar    1  UNL1       -0.0586
     21 C          -0.8807    3.3631    0.7724 C.ar    1  UNL1        0.0279
     22 C           2.7195    0.4689    1.6564 C.3     1  UNL1        0.0021
     23 C          -1.6810    4.0023   -0.1607 C.ar    1  UNL1       -0.0436
     24 C           2.4437    1.9464    1.7440 C.ar    1  UNL1        0.0756
     25 C           3.1245    2.9889    1.1545 C.ar    1  UNL1        0.1353
     26 C           2.5524    4.2526    1.4785 C.ar    1  UNL1       -0.0124
     27 C           1.4560    4.1283    2.3033 C.ar    1  UNL1       -0.0203
     28 C           4.4322    3.7580   -0.6769 C.3     1  UNL1        0.0788
     29 H          -6.8125   -2.6984    1.9889 H       1  UNL1        0.2098
     30 H           3.3557    0.4660   -0.2745 H       1  UNL1        0.2017
     31 H           2.8220   -1.0206    0.2850 H       1  UNL1        0.2017
     32 H          -1.8254   -1.9333    1.0585 H       1  UNL1        0.0302
     33 H          -2.3210   -0.3471    1.7051 H       1  UNL1        0.0302
     34 H          -4.3853   -1.7715    2.0766 H       1  UNL1        0.0318
     35 H          -4.2197   -3.0421    0.9381 H       1  UNL1        0.0318
     36 H          -4.1288    0.8097   -0.6633 H       1  UNL1        0.0294
     37 H          -4.3200    0.7679    1.0386 H       1  UNL1        0.0294
     38 H          -6.2264   -2.4315   -0.1837 H       1  UNL1        0.0594
     39 H          -6.1063   -0.3414   -1.0906 H       1  UNL1        0.0291
     40 H          -6.5727    0.3346    0.4216 H       1  UNL1        0.0291
     41 H          -0.8016   -1.9448   -1.3159 H       1  UNL1        0.0296
     42 H          -0.5952   -0.3814   -2.1211 H       1  UNL1        0.0296
     43 H           0.4702   -1.5172    0.5562 H       1  UNL1        0.0326
     44 H           0.2867   -0.0660    1.5309 H       1  UNL1        0.0326
     45 H          -2.9625   -0.0540   -2.1899 H       1  UNL1        0.0560
     46 H          -2.5587   -1.6058   -2.9164 H       1  UNL1        0.0560
     47 H           1.3078   -0.1407   -1.2918 H       1  UNL1        0.0814
     48 H           1.1438    1.2866   -0.2920 H       1  UNL1        0.0814
     49 H          -2.6448    1.2353   -1.7775 H       1  UNL1        0.0636
     50 H          -2.9386    3.6581   -1.8157 H       1  UNL1        0.0619
     51 H          -0.3952    3.9445    1.4733 H       1  UNL1        0.0829
     52 H           3.6984    0.2760    2.0430 H       1  UNL1        0.0873
     53 H           1.9723   -0.0427    2.2264 H       1  UNL1        0.0873
     54 H          -1.7889    5.0286   -0.1553 H       1  UNL1        0.0633
     55 H           2.9165    5.1553    1.1357 H       1  UNL1        0.0659
     56 H           0.9022    4.9266    2.6510 H       1  UNL1        0.0694
     57 H           5.3168    3.4887   -1.2154 H       1  UNL1        0.0660
     58 H           4.5558    4.7323   -0.2523 H       1  UNL1        0.0660
     59 H           3.5961    3.7634   -1.3446 H       1  UNL1        0.0660
@<TRIPOS>UNITY_ATOM_ATTR
6 1
charge 1
@<TRIPOS>BOND
     1     1    24   ar
     2     1    27   ar
     3     2    16    1
     4     3    12    1
     5     3    29    1
     6     4    25    1
     7     4    28    1
     8     5    17   ar
     9     5    21   ar
    10     6    18    1
    11     6    22    1
    12     6    30    1
    13     6    31    1
    14     7     2    1
    15     7     9    1
    16     7    10    1
    17     7    11    1
    18     8     9    1
    19     8    14    1
    20     8    15    1
    21     8    17    1
    22     9    32    1
    23     9    33    1
    24    10    12    1
    25    10    34    1
    26    10    35    1
    27    11    13    1
    28    11    36    1
    29    11    37    1
    30    12    13    1
    31    12    38    1
    32    13    39    1
    33    13    40    1
    34    14    16    1
    35    14    41    1
    36    14    42    1
    37    15    18    1
    38    15    43    1
    39    15    44    1
    40    16    45    1
    41    16    46    1
    42    17    19   ar
    43    18    47    1
    44    18    48    1
    45    19    20   ar
    46    19    49    1
    47    20    23   ar
    48    20    50    1
    49    21    23   ar
    50    21    51    1
    51    22    24    1
    52    22    52    1
    53    22    53    1
    54    23    54    1
    55    24    25   ar
    56    25    26   ar
    57    26    27   ar
    58    26    55    1
    59    27    56    1
    60    28    57    1
    61    28    58    1
    62    28    59    1
@<TRIPOS>MOLECULE
154925832
 59 62 0 0 0
SMALL
GASTEIGER

@<TRIPOS>ATOM
      1 S           3.3397   -0.1043    6.1195 S.2     1  UNL1       -0.0926
      2 O          -3.4780   -1.7041   -1.1056 O.3     1  UNL1       -0.3732
      3 O          -6.8095   -1.7965    1.6320 O.3     1  UNL1       -0.3917
      4 O           4.4874    0.3126    2.4522 O.3     1  UNL1       -0.4941
      5 N          -2.5393    1.7296   -0.5793 N.ar    1  UNL1       -0.2593
      6 N           1.6860   -0.1462    2.4978 N.4     1  UNL1        0.2308
      7 C          -3.5817   -1.0970    0.1878 C.3     1  UNL1        0.0728
      8 C          -1.1415   -0.2325   -0.0614 C.3     1  UNL1        0.0224
      9 C          -2.1927   -0.9539    0.8332 C.3     1  UNL1       -0.0123
     10 C          -4.4808   -2.0092    1.0377 C.3     1  UNL1        0.0024
     11 C          -4.4284    0.1820    0.1498 C.3     1  UNL1       -0.0213
     12 C          -5.9002   -1.7207    0.5465 C.3     1  UNL1        0.0580
     13 C          -5.8625   -0.3127   -0.0491 C.3     1  UNL1       -0.0242
     14 C          -1.1858   -0.9535   -1.4364 C.3     1  UNL1       -0.0181
     15 C           0.2670   -0.4668    0.5390 C.3     1  UNL1       -0.0013
     16 C          -2.5969   -1.0429   -2.0073 C.3     1  UNL1        0.0492
     17 C          -1.3476    1.2945   -0.1120 C.ar    1  UNL1        0.0478
     18 C           0.3478    0.0706    1.9607 C.3     1  UNL1       -0.0325
     19 C          -0.3286    2.1319    0.3127 C.ar    1  UNL1       -0.0398
     20 C          -0.5467    3.5039    0.2542 C.ar    1  UNL1       -0.0586
     21 C          -2.7149    3.0694   -0.6214 C.ar    1  UNL1        0.0279
     22 C           1.7832    0.3454    3.8648 C.3     1  UNL1        0.0021
     23 C          -1.7599    3.9897   -0.2207 C.ar    1  UNL1       -0.0436
     24 C           3.1625    0.1475    4.4350 C.ar    1  UNL1        0.0756
     25 C           4.3747    0.1369    3.7805 C.ar    1  UNL1        0.1353
     26 C           5.4629   -0.0809    4.6735 C.ar    1  UNL1       -0.0124
     27 C           5.0414   -0.2285    5.9768 C.ar    1  UNL1       -0.0203
     28 C           5.6862    0.9294    1.9617 C.3     1  UNL1        0.0788
     29 H          -6.8125   -2.6984    1.9889 H       1  UNL1        0.2098
     30 H           2.3632    0.3475    1.9164 H       1  UNL1        0.2017
     31 H           1.8790   -1.1478    2.4971 H       1  UNL1        0.2017
     32 H          -1.8254   -1.9333    1.0585 H       1  UNL1        0.0302
     33 H          -2.3210   -0.3471    1.7051 H       1  UNL1        0.0302
     34 H          -4.3853   -1.7715    2.0766 H       1  UNL1        0.0318
     35 H          -4.2197   -3.0421    0.9381 H       1  UNL1        0.0318
     36 H          -4.1288    0.8097   -0.6633 H       1  UNL1        0.0294
     37 H          -4.3200    0.7679    1.0386 H       1  UNL1        0.0294
     38 H          -6.2264   -2.4315   -0.1837 H       1  UNL1        0.0594
     39 H          -6.1063   -0.3414   -1.0906 H       1  UNL1        0.0291
     40 H          -6.5727    0.3346    0.4216 H       1  UNL1        0.0291
     41 H          -0.8016   -1.9448   -1.3159 H       1  UNL1        0.0296
     42 H          -0.5952   -0.3814   -2.1211 H       1  UNL1        0.0296
     43 H           0.9935    0.0336   -0.0665 H       1  UNL1        0.0326
     44 H           0.4588   -1.5192    0.5600 H       1  UNL1        0.0326
     45 H          -2.9625   -0.0540   -2.1899 H       1  UNL1        0.0560
     46 H          -2.5587   -1.6058   -2.9164 H       1  UNL1        0.0560
     47 H           0.1326    1.1188    1.9565 H       1  UNL1        0.0814
     48 H          -0.3647   -0.4424    2.5723 H       1  UNL1        0.0814
     49 H           0.5641    1.7492    0.6616 H       1  UNL1        0.0636
     50 H           0.1889    4.1590    0.5620 H       1  UNL1        0.0619
     51 H          -3.6159    3.4287   -0.9738 H       1  UNL1        0.0829
     52 H           1.0783   -0.1818    4.4732 H       1  UNL1        0.0873
     53 H           1.5752    1.3950    3.8557 H       1  UNL1        0.0873
     54 H          -1.9432    5.0039   -0.2731 H       1  UNL1        0.0633
     55 H           6.4510   -0.1233    4.3788 H       1  UNL1        0.0659
     56 H           5.6765   -0.3944    6.7731 H       1  UNL1        0.0694
     57 H           5.6381    1.0043    0.8954 H       1  UNL1        0.0660
     58 H           6.5320    0.3360    2.2399 H       1  UNL1        0.0660
     59 H           5.7824    1.9078    2.3841 H       1  UNL1        0.0660
@<TRIPOS>UNITY_ATOM_ATTR
6 1
charge 1
@<TRIPOS>BOND
     1     1    24   ar
     2     1    27   ar
     3     2    16    1
     4     3    12    1
     5     3    29    1
     6     4    25    1
     7     4    28    1
     8     5    17   ar
     9     5    21   ar
    10     6    18    1
    11     6    22    1
    12     6    30    1
    13     6    31    1
    14     7     2    1
    15     7     9    1
    16     7    10    1
    17     7    11    1
    18     8     9    1
    19     8    14    1
    20     8    15    1
    21     8    17    1
    22     9    32    1
    23     9    33    1
    24    10    12    1
    25    10    34    1
    26    10    35    1
    27    11    13    1
    28    11    36    1
    29    11    37    1
    30    12    13    1
    31    12    38    1
    32    13    39    1
    33    13    40    1
    34    14    16    1
    35    14    41    1
    36    14    42    1
    37    15    18    1
    38    15    43    1
    39    15    44    1
    40    16    45    1
    41    16    46    1
    42    17    19   ar
    43    18    47    1
    44    18    48    1
    45    19    20   ar
    46    19    49    1
    47    20    23   ar
    48    20    50    1
    49    21    23   ar
    50    21    51    1
    51    22    24    1
    52    22    52    1
    53    22    53    1
    54    23    54    1
    55    24    25   ar
    56    25    26   ar
    57    26    27   ar
    58    26    55    1
    59    27    56    1
    60    28    57    1
    61    28    58    1
    62    28    59    1
@<TRIPOS>MOLECULE
154925832
 59 62 0 0 0
SMALL
GASTEIGER

@<TRIPOS>ATOM
      1 S           5.9588   -0.9384   -0.4871 S.2     1  UNL1       -0.0926
      2 O          -3.4780   -1.7041   -1.1056 O.3     1  UNL1       -0.3732
      3 O          -6.8095   -1.7965    1.6320 O.3     1  UNL1       -0.3917
      4 O           5.2434    2.2123    1.6346 O.3     1  UNL1       -0.4941
      5 N          -0.9732    1.9188   -1.2513 N.ar    1  UNL1       -0.2593
      6 N           2.6511   -0.0149    0.2847 N.4     1  UNL1        0.2308
      7 C          -3.5817   -1.0970    0.1878 C.3     1  UNL1        0.0728
      8 C          -1.1415   -0.2325   -0.0614 C.3     1  UNL1        0.0224
      9 C          -2.1927   -0.9539    0.8332 C.3     1  UNL1       -0.0123
     10 C          -4.4808   -2.0092    1.0377 C.3     1  UNL1        0.0024
     11 C          -4.4284    0.1820    0.1498 C.3     1  UNL1       -0.0213
     12 C          -5.9002   -1.7207    0.5465 C.3     1  UNL1        0.0580
     13 C          -5.8625   -0.3127   -0.0491 C.3     1  UNL1       -0.0242
     14 C          -1.1858   -0.9535   -1.4364 C.3     1  UNL1       -0.0181
     15 C           0.2670   -0.4668    0.5390 C.3     1  UNL1       -0.0013
     16 C          -2.5969   -1.0429   -2.0073 C.3     1  UNL1        0.0492
     17 C          -1.3476    1.2945   -0.1120 C.ar    1  UNL1        0.0478
     18 C           1.3342    0.2337   -0.2898 C.3     1  UNL1       -0.0325
     19 C          -1.8934    1.9429    0.9841 C.ar    1  UNL1       -0.0398
     20 C          -2.0661    3.3204    0.9060 C.ar    1  UNL1       -0.0586
     21 C          -1.1561    3.2576   -1.2905 C.ar    1  UNL1        0.0279
     22 C           3.6886    0.6598   -0.4825 C.3     1  UNL1        0.0021
     23 C          -1.6928    3.9978   -0.2495 C.ar    1  UNL1       -0.0436
     24 C           5.0602    0.4032    0.0828 C.ar    1  UNL1        0.0756
     25 C           5.7470    1.1159    1.0410 C.ar    1  UNL1        0.1353
     26 C           7.0277    0.5532    1.3107 C.ar    1  UNL1       -0.0124
     27 C           7.2712   -0.5682    0.5485 C.ar    1  UNL1       -0.0203
     28 C           3.9324    2.6402    1.2395 C.3     1  UNL1        0.0788
     29 H          -6.8125   -2.6984    1.9889 H       1  UNL1        0.2098
     30 H           2.8328   -1.0186    0.2815 H       1  UNL1        0.2017
     31 H           2.6641    0.3464    1.2385 H       1  UNL1        0.2017
     32 H          -1.8254   -1.9333    1.0585 H       1  UNL1        0.0302
     33 H          -2.3210   -0.3471    1.7051 H       1  UNL1        0.0302
     34 H          -4.3853   -1.7715    2.0766 H       1  UNL1        0.0318
     35 H          -4.2197   -3.0421    0.9381 H       1  UNL1        0.0318
     36 H          -4.1288    0.8097   -0.6633 H       1  UNL1        0.0294
     37 H          -4.3200    0.7679    1.0386 H       1  UNL1        0.0294
     38 H          -6.2264   -2.4315   -0.1837 H       1  UNL1        0.0594
     39 H          -6.1063   -0.3414   -1.0906 H       1  UNL1        0.0291
     40 H          -6.5727    0.3346    0.4216 H       1  UNL1        0.0291
     41 H          -0.8016   -1.9448   -1.3159 H       1  UNL1        0.0296
     42 H          -0.5952   -0.3814   -2.1211 H       1  UNL1        0.0296
     43 H           0.4702   -1.5172    0.5562 H       1  UNL1        0.0326
     44 H           0.2867   -0.0660    1.5309 H       1  UNL1        0.0326
     45 H          -2.9625   -0.0540   -2.1899 H       1  UNL1        0.0560
     46 H          -2.5587   -1.6058   -2.9164 H       1  UNL1        0.0560
     47 H           1.3078   -0.1407   -1.2918 H       1  UNL1        0.0814
     48 H           1.1438    1.2866   -0.2920 H       1  UNL1        0.0814
     49 H          -2.1633    1.4199    1.8319 H       1  UNL1        0.0636
     50 H          -2.4697    3.8380    1.7025 H       1  UNL1        0.0619
     51 H          -0.8790    3.7592   -2.1488 H       1  UNL1        0.0829
     52 H           3.4999    1.7129   -0.4683 H       1  UNL1        0.0873
     53 H           3.6643    0.2774   -1.4815 H       1  UNL1        0.0873
     54 H          -1.8117    5.0198   -0.3292 H       1  UNL1        0.0633
     55 H           7.6947    0.9403    1.9965 H       1  UNL1        0.0659
     56 H           8.1419   -1.1200    0.5960 H       1  UNL1        0.0694
     57 H           3.6628    3.5176    1.7895 H       1  UNL1        0.0660
     58 H           3.2271    1.8615    1.4420 H       1  UNL1        0.0660
     59 H           3.9295    2.8606    0.1925 H       1  UNL1        0.0660
@<TRIPOS>UNITY_ATOM_ATTR
6 1
charge 1
@<TRIPOS>BOND
     1     1    24   ar
     2     1    27   ar
     3     2    16    1
     4     3    12    1
     5     3    29    1
     6     4    25    1
     7     4    28    1
     8     5    17   ar
     9     5    21   ar
    10     6    18    1
    11     6    22    1
    12     6    30    1
    13     6    31    1
    14     7     2    1
    15     7     9    1
    16     7    10    1
    17     7    11    1
    18     8     9    1
    19     8    14    1
    20     8    15    1
    21     8    17    1
    22     9    32    1
    23     9    33    1
    24    10    12    1
    25    10    34    1
    26    10    35    1
    27    11    13    1
    28    11    36    1
    29    11    37    1
    30    12    13    1
    31    12    38    1
    32    13    39    1
    33    13    40    1
    34    14    16    1
    35    14    41    1
    36    14    42    1
    37    15    18    1
    38    15    43    1
    39    15    44    1
    40    16    45    1
    41    16    46    1
    42    17    19   ar
    43    18    47    1
    44    18    48    1
    45    19    20   ar
    46    19    49    1
    47    20    23   ar
    48    20    50    1
    49    21    23   ar
    50    21    51    1
    51    22    24    1
    52    22    52    1
    53    22    53    1
    54    23    54    1
    55    24    25   ar
    56    25    26   ar
    57    26    27   ar
    58    26    55    1
    59    27    56    1
    60    28    57    1
    61    28    58    1
    62    28    59    1
@<TRIPOS>MOLECULE
154925832
 59 62 0 0 0
SMALL
GASTEIGER

@<TRIPOS>ATOM
      1 S           5.9588   -0.9384   -0.4871 S.2     1  UNL1       -0.0926
      2 O          -3.4780   -1.7041   -1.1056 O.3     1  UNL1       -0.3732
      3 O          -6.8095   -1.7965    1.6320 O.3     1  UNL1       -0.3917
      4 O           5.2434    2.2123    1.6346 O.3     1  UNL1       -0.4941
      5 N          -0.4848    1.9970   -0.8800 N.ar    1  UNL1       -0.2593
      6 N           2.6511   -0.0149    0.2847 N.4     1  UNL1        0.2308
      7 C          -3.5817   -1.0970    0.1878 C.3     1  UNL1        0.0728
      8 C          -1.1415   -0.2325   -0.0614 C.3     1  UNL1        0.0224
      9 C          -2.1927   -0.9539    0.8332 C.3     1  UNL1       -0.0123
     10 C          -4.4808   -2.0092    1.0377 C.3     1  UNL1        0.0024
     11 C          -4.4284    0.1820    0.1498 C.3     1  UNL1       -0.0213
     12 C          -5.9002   -1.7207    0.5465 C.3     1  UNL1        0.0580
     13 C          -5.8625   -0.3127   -0.0491 C.3     1  UNL1       -0.0242
     14 C          -1.1858   -0.9535   -1.4364 C.3     1  UNL1       -0.0181
     15 C           0.2670   -0.4668    0.5390 C.3     1  UNL1       -0.0013
     16 C          -2.5969   -1.0429   -2.0073 C.3     1  UNL1        0.0492
     17 C          -1.3476    1.2945   -0.1120 C.ar    1  UNL1        0.0478
     18 C           1.3342    0.2337   -0.2898 C.3     1  UNL1       -0.0325
     19 C          -2.3814    1.8648    0.6132 C.ar    1  UNL1       -0.0398
     20 C          -2.5399    3.2445    0.5458 C.ar    1  UNL1       -0.0586
     21 C          -0.6699    3.3355   -0.9210 C.ar    1  UNL1        0.0279
     22 C           3.6886    0.6598   -0.4825 C.3     1  UNL1        0.0021
     23 C          -1.6719    4.0012   -0.2335 C.ar    1  UNL1       -0.0436
     24 C           5.0602    0.4032    0.0828 C.ar    1  UNL1        0.0756
     25 C           5.7470    1.1159    1.0410 C.ar    1  UNL1        0.1353
     26 C           7.0277    0.5532    1.3107 C.ar    1  UNL1       -0.0124
     27 C           7.2712   -0.5682    0.5485 C.ar    1  UNL1       -0.0203
     28 C           5.6521    2.4869    2.9819 C.3     1  UNL1        0.0788
     29 H          -6.8125   -2.6984    1.9889 H       1  UNL1        0.2098
     30 H           2.8328   -1.0186    0.2815 H       1  UNL1        0.2017
     31 H           2.6641    0.3464    1.2385 H       1  UNL1        0.2017
     32 H          -1.8254   -1.9333    1.0585 H       1  UNL1        0.0302
     33 H          -2.3210   -0.3471    1.7051 H       1  UNL1        0.0302
     34 H          -4.3853   -1.7715    2.0766 H       1  UNL1        0.0318
     35 H          -4.2197   -3.0421    0.9381 H       1  UNL1        0.0318
     36 H          -4.1288    0.8097   -0.6633 H       1  UNL1        0.0294
     37 H          -4.3200    0.7679    1.0386 H       1  UNL1        0.0294
     38 H          -6.2264   -2.4315   -0.1837 H       1  UNL1        0.0594
     39 H          -6.1063   -0.3414   -1.0906 H       1  UNL1        0.0291
     40 H          -6.5727    0.3346    0.4216 H       1  UNL1        0.0291
     41 H          -0.8016   -1.9448   -1.3159 H       1  UNL1        0.0296
     42 H          -0.5952   -0.3814   -2.1211 H       1  UNL1        0.0296
     43 H           0.4702   -1.5172    0.5562 H       1  UNL1        0.0326
     44 H           0.2867   -0.0660    1.5309 H       1  UNL1        0.0326
     45 H          -2.9625   -0.0540   -2.1899 H       1  UNL1        0.0560
     46 H          -2.5587   -1.6058   -2.9164 H       1  UNL1        0.0560
     47 H           1.3078   -0.1407   -1.2918 H       1  UNL1        0.0814
     48 H           1.1438    1.2866   -0.2920 H       1  UNL1        0.0814
     49 H          -3.0139    1.2836    1.1854 H       1  UNL1        0.0636
     50 H          -3.2987    3.7052    1.0722 H       1  UNL1        0.0619
     51 H          -0.0252    3.8959   -1.5001 H       1  UNL1        0.0829
     52 H           3.4999    1.7129   -0.4683 H       1  UNL1        0.0873
     53 H           3.6643    0.2774   -1.4815 H       1  UNL1        0.0873
     54 H          -1.7708    5.0263   -0.2979 H       1  UNL1        0.0633
     55 H           7.6947    0.9403    1.9965 H       1  UNL1        0.0659
     56 H           8.1419   -1.1200    0.5960 H       1  UNL1        0.0694
     57 H           5.1766    3.3827    3.3233 H       1  UNL1        0.0660
     58 H           6.7142    2.6124    3.0139 H       1  UNL1        0.0660
     59 H           5.3703    1.6705    3.6136 H       1  UNL1        0.0660
@<TRIPOS>UNITY_ATOM_ATTR
6 1
charge 1
@<TRIPOS>BOND
     1     1    24   ar
     2     1    27   ar
     3     2    16    1
     4     3    12    1
     5     3    29    1
     6     4    25    1
     7     4    28    1
     8     5    17   ar
     9     5    21   ar
    10     6    18    1
    11     6    22    1
    12     6    30    1
    13     6    31    1
    14     7     2    1
    15     7     9    1
    16     7    10    1
    17     7    11    1
    18     8     9    1
    19     8    14    1
    20     8    15    1
    21     8    17    1
    22     9    32    1
    23     9    33    1
    24    10    12    1
    25    10    34    1
    26    10    35    1
    27    11    13    1
    28    11    36    1
    29    11    37    1
    30    12    13    1
    31    12    38    1
    32    13    39    1
    33    13    40    1
    34    14    16    1
    35    14    41    1
    36    14    42    1
    37    15    18    1
    38    15    43    1
    39    15    44    1
    40    16    45    1
    41    16    46    1
    42    17    19   ar
    43    18    47    1
    44    18    48    1
    45    19    20   ar
    46    19    49    1
    47    20    23   ar
    48    20    50    1
    49    21    23   ar
    50    21    51    1
    51    22    24    1
    52    22    52    1
    53    22    53    1
    54    23    54    1
    55    24    25   ar
    56    25    26   ar
    57    26    27   ar
    58    26    55    1
    59    27    56    1
    60    28    57    1
    61    28    58    1
    62    28    59    1
@<TRIPOS>MOLECULE
154925832
 59 62 0 0 0
SMALL
GASTEIGER

@<TRIPOS>ATOM
      1 S           4.1904   -0.4348    3.6736 S.2     1  UNL1       -0.0926
      2 O          -3.4780   -1.7041   -1.1056 O.3     1  UNL1       -0.3732
      3 O          -6.8095   -1.7965    1.6320 O.3     1  UNL1       -0.3917
      4 O           3.5617   -4.1939    3.0300 O.3     1  UNL1       -0.4941
      5 N          -1.2616    1.9565    1.0637 N.ar    1  UNL1       -0.2593
      6 N           1.9227   -2.1473    1.1614 N.4     1  UNL1        0.2308
      7 C          -3.5817   -1.0970    0.1878 C.3     1  UNL1        0.0728
      8 C          -1.1415   -0.2325   -0.0614 C.3     1  UNL1        0.0224
      9 C          -2.1927   -0.9539    0.8332 C.3     1  UNL1       -0.0123
     10 C          -4.4808   -2.0092    1.0377 C.3     1  UNL1        0.0024
     11 C          -4.4284    0.1820    0.1498 C.3     1  UNL1       -0.0213
     12 C          -5.9002   -1.7207    0.5465 C.3     1  UNL1        0.0580
     13 C          -5.8625   -0.3127   -0.0491 C.3     1  UNL1       -0.0242
     14 C          -1.1858   -0.9535   -1.4364 C.3     1  UNL1       -0.0181
     15 C           0.2670   -0.4668    0.5390 C.3     1  UNL1       -0.0013
     16 C          -2.5969   -1.0429   -2.0073 C.3     1  UNL1        0.0492
     17 C          -1.3476    1.2945   -0.1120 C.ar    1  UNL1        0.0478
     18 C           0.6009   -1.9512    0.5778 C.3     1  UNL1       -0.0325
     19 C          -1.6052    1.9052   -1.3288 C.ar    1  UNL1       -0.0398
     20 C          -1.7861    3.2838   -1.3397 C.ar    1  UNL1       -0.0586
     21 C          -1.4430    3.2952    1.0137 C.ar    1  UNL1        0.0279
     22 C           1.9686   -1.6410    2.5258 C.3     1  UNL1        0.0021
     23 C          -1.7052    3.9994   -0.1504 C.ar    1  UNL1       -0.0436
     24 C           3.3302   -1.8174    3.1437 C.ar    1  UNL1        0.0756
     25 C           4.0356   -2.9803    3.3627 C.ar    1  UNL1        0.1353
     26 C           5.2985   -2.7330    3.9736 C.ar    1  UNL1       -0.0124
     27 C           5.5107   -1.3905    4.1983 C.ar    1  UNL1       -0.0203
     28 C           2.1395   -4.3806    3.0467 C.3     1  UNL1        0.0788
     29 H          -6.8125   -2.6984    1.9889 H       1  UNL1        0.2098
     30 H           2.6135   -1.6517    0.5979 H       1  UNL1        0.2017
     31 H           2.1268   -3.1466    1.1776 H       1  UNL1        0.2017
     32 H          -1.8254   -1.9333    1.0585 H       1  UNL1        0.0302
     33 H          -2.3210   -0.3471    1.7051 H       1  UNL1        0.0302
     34 H          -4.3853   -1.7715    2.0766 H       1  UNL1        0.0318
     35 H          -4.2197   -3.0421    0.9381 H       1  UNL1        0.0318
     36 H          -4.1288    0.8097   -0.6633 H       1  UNL1        0.0294
     37 H          -4.3200    0.7679    1.0386 H       1  UNL1        0.0294
     38 H          -6.2264   -2.4315   -0.1837 H       1  UNL1        0.0594
     39 H          -6.1063   -0.3414   -1.0906 H       1  UNL1        0.0291
     40 H          -6.5727    0.3346    0.4216 H       1  UNL1        0.0291
     41 H          -0.8016   -1.9448   -1.3159 H       1  UNL1        0.0296
     42 H          -0.5952   -0.3814   -2.1211 H       1  UNL1        0.0296
     43 H           0.2928   -0.0758    1.5346 H       1  UNL1        0.0326
     44 H           0.9878    0.0297   -0.0764 H       1  UNL1        0.0326
     45 H          -2.9625   -0.0540   -2.1899 H       1  UNL1        0.0560
     46 H          -2.5587   -1.6058   -2.9164 H       1  UNL1        0.0560
     47 H          -0.1281   -2.4635    1.1702 H       1  UNL1        0.0814
     48 H           0.5947   -2.3399   -0.4191 H       1  UNL1        0.0814
     49 H          -1.6610    1.3541   -2.1996 H       1  UNL1        0.0636
     50 H          -1.9796    3.7739   -2.2271 H       1  UNL1        0.0619
     51 H          -1.3825    3.8253    1.8971 H       1  UNL1        0.0829
     52 H           1.2497   -2.1702    3.1158 H       1  UNL1        0.0873
     53 H           1.7494   -0.5940    2.4989 H       1  UNL1        0.0873
     54 H          -1.8364    5.0229   -0.1351 H       1  UNL1        0.0633
     55 H           5.9750   -3.4726    4.2190 H       1  UNL1        0.0659
     56 H           6.3647   -1.0061    4.6318 H       1  UNL1        0.0694
     57 H           1.9084   -5.3862    2.7630 H       1  UNL1        0.0660
     58 H           1.6825   -3.7016    2.3576 H       1  UNL1        0.0660
     59 H           1.7667   -4.1935    4.0321 H       1  UNL1        0.0660
@<TRIPOS>UNITY_ATOM_ATTR
6 1
charge 1
@<TRIPOS>BOND
     1     1    24   ar
     2     1    27   ar
     3     2    16    1
     4     3    12    1
     5     3    29    1
     6     4    25    1
     7     4    28    1
     8     5    17   ar
     9     5    21   ar
    10     6    18    1
    11     6    22    1
    12     6    30    1
    13     6    31    1
    14     7     2    1
    15     7     9    1
    16     7    10    1
    17     7    11    1
    18     8     9    1
    19     8    14    1
    20     8    15    1
    21     8    17    1
    22     9    32    1
    23     9    33    1
    24    10    12    1
    25    10    34    1
    26    10    35    1
    27    11    13    1
    28    11    36    1
    29    11    37    1
    30    12    13    1
    31    12    38    1
    32    13    39    1
    33    13    40    1
    34    14    16    1
    35    14    41    1
    36    14    42    1
    37    15    18    1
    38    15    43    1
    39    15    44    1
    40    16    45    1
    41    16    46    1
    42    17    19   ar
    43    18    47    1
    44    18    48    1
    45    19    20   ar
    46    19    49    1
    47    20    23   ar
    48    20    50    1
    49    21    23   ar
    50    21    51    1
    51    22    24    1
    52    22    52    1
    53    22    53    1
    54    23    54    1
    55    24    25   ar
    56    25    26   ar
    57    26    27   ar
    58    26    55    1
    59    27    56    1
    60    28    57    1
    61    28    58    1
    62    28    59    1
