@<TRIPOS>MOLECULE
66553195
 58 61 0 0 0
SMALL
GASTEIGER

@<TRIPOS>ATOM
      1 S         116.3154  155.1792  146.1132 S.2     1  UNL1       -0.0926
      2 O         124.2793  154.9077  145.9220 O.3     1  UNL1       -0.3733
      3 O         117.2822  151.4518  145.9676 O.3     1  UNL1       -0.4941
      4 N         121.6398  151.4738  147.2736 N.ar    1  UNL1       -0.2593
      5 N         118.3614  154.1071  148.5901 N.4     1  UNL1        0.2308
      6 C         124.1173  154.1096  147.0986 C.3     1  UNL1        0.0704
      7 C         121.6228  153.7735  146.4400 C.3     1  UNL1        0.0224
      8 C         122.6496  154.1320  147.5567 C.3     1  UNL1       -0.0124
      9 C         125.0280  154.7201  148.1770 C.3     1  UNL1       -0.0237
     10 C         124.7481  152.7200  146.9441 C.3     1  UNL1       -0.0237
     11 C         121.9853  154.6484  145.2083 C.3     1  UNL1       -0.0181
     12 C         126.4353  154.2507  147.8123 C.3     1  UNL1       -0.0504
     13 C         126.2529  152.9809  146.9850 C.3     1  UNL1       -0.0504
     14 C         120.1800  154.1839  146.8872 C.3     1  UNL1       -0.0013
     15 C         123.4544  154.5362  144.8264 C.3     1  UNL1        0.0492
     16 C         121.6032  152.2646  146.1683 C.ar    1  UNL1        0.0478
     17 C         119.6434  153.4680  148.1314 C.3     1  UNL1       -0.0325
     18 C         121.4842  151.7115  144.8938 C.ar    1  UNL1       -0.0398
     19 C         121.4612  150.3248  144.7481 C.ar    1  UNL1       -0.0586
     20 C         121.6354  150.1305  147.1028 C.ar    1  UNL1        0.0279
     21 C         117.0973  153.4450  148.1341 C.3     1  UNL1        0.0021
     22 C         121.5466  149.5156  145.8706 C.ar    1  UNL1       -0.0436
     23 C         116.8111  153.6428  146.6880 C.ar    1  UNL1        0.0756
     24 C         116.8846  152.7143  145.6705 C.ar    1  UNL1        0.1353
     25 C         116.5296  153.2725  144.4080 C.ar    1  UNL1       -0.0124
     26 C         116.1969  154.6067  144.5083 C.ar    1  UNL1       -0.0203
     27 C         117.2238  150.5349  144.8786 C.3     1  UNL1        0.0788
     28 H         118.3276  155.0983  148.3225 H       1  UNL1        0.2017
     29 H         118.3540  154.0914  149.6164 H       1  UNL1        0.2017
     30 H         122.4264  155.1575  147.8867 H       1  UNL1        0.0302
     31 H         122.5311  153.5009  148.4454 H       1  UNL1        0.0302
     32 H         124.7660  154.3391  149.1720 H       1  UNL1        0.0293
     33 H         124.9795  155.8140  148.2031 H       1  UNL1        0.0293
     34 H         124.4851  152.2017  146.0195 H       1  UNL1        0.0293
     35 H         124.4722  152.0751  147.7874 H       1  UNL1        0.0293
     36 H         121.7967  155.7006  145.4655 H       1  UNL1        0.0296
     37 H         121.3472  154.4338  144.3445 H       1  UNL1        0.0296
     38 H         127.0355  154.0691  148.7097 H       1  UNL1        0.0266
     39 H         126.9547  155.0122  147.2193 H       1  UNL1        0.0266
     40 H         126.6398  153.1396  145.9716 H       1  UNL1        0.0266
     41 H         126.7943  152.1318  147.4140 H       1  UNL1        0.0266
     42 H         119.4963  154.0114  146.0485 H       1  UNL1        0.0326
     43 H         120.1646  155.2669  147.0722 H       1  UNL1        0.0326
     44 H         123.7201  153.5390  144.4654 H       1  UNL1        0.0560
     45 H         123.6689  155.2326  144.0088 H       1  UNL1        0.0560
     46 H         119.4349  152.4076  147.9728 H       1  UNL1        0.0814
     47 H         120.3309  153.5755  148.9747 H       1  UNL1        0.0814
     48 H         121.4212  152.3194  143.9985 H       1  UNL1        0.0636
     49 H         121.3920  149.8796  143.7584 H       1  UNL1        0.0619
     50 H         121.7109  149.5431  148.0142 H       1  UNL1        0.0829
     51 H         116.2969  153.8812  148.7433 H       1  UNL1        0.0873
     52 H         117.1694  152.3874  148.4095 H       1  UNL1        0.0873
     53 H         121.5509  148.4342  145.7853 H       1  UNL1        0.0633
     54 H         116.5094  152.7448  143.4622 H       1  UNL1        0.0659
     55 H         115.8860  155.2713  143.7117 H       1  UNL1        0.0694
     56 H         117.9231  150.8211  144.0860 H       1  UNL1        0.0660
     57 H         116.2033  150.4469  144.4903 H       1  UNL1        0.0660
     58 H         117.5257  149.5520  145.2529 H       1  UNL1        0.0660
@<TRIPOS>UNITY_ATOM_ATTR
5 1
charge 1
@<TRIPOS>BOND
     1     1    23   ar
     2     1    26   ar
     3     2     6    1
     4     2    15    1
     5     3    24    1
     6     3    27    1
     7     4    16   ar
     8     4    20   ar
     9     5    17    1
    10     5    21    1
    11     5    28    1
    12     5    29    1
    13     6     8    1
    14     6     9    1
    15     6    10    1
    16     7     8    1
    17     7    11    1
    18     7    14    1
    19     7    16    1
    20     8    30    1
    21     8    31    1
    22     9    12    1
    23     9    32    1
    24     9    33    1
    25    10    13    1
    26    10    34    1
    27    10    35    1
    28    11    15    1
    29    11    36    1
    30    11    37    1
    31    12    13    1
    32    12    38    1
    33    12    39    1
    34    13    40    1
    35    13    41    1
    36    14    17    1
    37    14    42    1
    38    14    43    1
    39    15    44    1
    40    15    45    1
    41    16    18   ar
    42    17    46    1
    43    17    47    1
    44    18    19   ar
    45    18    48    1
    46    19    22   ar
    47    19    49    1
    48    20    22   ar
    49    20    50    1
    50    21    23    1
    51    21    51    1
    52    21    52    1
    53    22    53    1
    54    23    24   ar
    55    24    25   ar
    56    25    26   ar
    57    25    54    1
    58    26    55    1
    59    27    56    1
    60    27    57    1
    61    27    58    1
@<TRIPOS>MOLECULE
66553195
 58 61 0 0 0
SMALL
GASTEIGER

@<TRIPOS>ATOM
      1 S         115.3617  150.8668  147.1288 S.2     1  UNL1       -0.0926
      2 O         123.9088  155.0871  145.7863 O.3     1  UNL1       -0.3733
      3 O         116.9982  153.8788  148.8889 O.3     1  UNL1       -0.4941
      4 N         121.4187  151.0454  146.7939 N.ar    1  UNL1       -0.2593
      5 N         118.6846  151.5702  146.4476 N.4     1  UNL1        0.2308
      6 C         123.9412  154.1280  146.8457 C.3     1  UNL1        0.0704
      7 C         121.5188  153.4223  146.1771 C.3     1  UNL1        0.0224
      8 C         122.5138  153.8231  147.3085 C.3     1  UNL1       -0.0124
      9 C         124.7531  154.7541  147.9918 C.3     1  UNL1       -0.0237
     10 C         124.8069  152.9076  146.5110 C.3     1  UNL1       -0.0237
     11 C         121.6973  154.4271  145.0069 C.3     1  UNL1       -0.0181
     12 C         126.2089  154.6107  147.5580 C.3     1  UNL1       -0.0504
     13 C         126.2457  153.4133  146.6129 C.3     1  UNL1       -0.0504
     14 C         120.0784  153.6115  146.7858 C.3     1  UNL1       -0.0013
     15 C         123.1559  154.7035  144.6467 C.3     1  UNL1        0.0492
     16 C         121.7225  151.9431  145.8108 C.ar    1  UNL1        0.0478
     17 C         118.9191  152.9804  146.0149 C.3     1  UNL1       -0.0325
     18 C         122.1308  151.4989  144.5552 C.ar    1  UNL1       -0.0398
     19 C         122.3474  150.1368  144.3417 C.ar    1  UNL1       -0.0586
     20 C         121.7104  149.7347  146.5838 C.ar    1  UNL1        0.0279
     21 C         118.0199  151.3505  147.7673 C.3     1  UNL1        0.0021
     22 C         122.1597  149.2379  145.3796 C.ar    1  UNL1       -0.0436
     23 C         116.6096  151.8247  147.8047 C.ar    1  UNL1        0.0756
     24 C         116.1217  152.9974  148.3437 C.ar    1  UNL1        0.1353
     25 C         114.7063  153.0989  148.2144 C.ar    1  UNL1       -0.0124
     26 C         114.1664  152.0022  147.5766 C.ar    1  UNL1       -0.0203
     27 C         116.3953  154.9953  149.5384 C.3     1  UNL1        0.0788
     28 H         119.6058  151.1020  146.5075 H       1  UNL1        0.2017
     29 H         118.1487  151.0683  145.7323 H       1  UNL1        0.2017
     30 H         122.1277  154.7452  147.7695 H       1  UNL1        0.0302
     31 H         122.5267  153.0719  148.1092 H       1  UNL1        0.0302
     32 H         124.5976  154.2037  148.9281 H       1  UNL1        0.0293
     33 H         124.5023  155.8063  148.1641 H       1  UNL1        0.0293
     34 H         124.6362  152.4866  145.5189 H       1  UNL1        0.0293
     35 H         124.6512  152.1111  147.2492 H       1  UNL1        0.0293
     36 H         121.2701  155.3924  145.3125 H       1  UNL1        0.0296
     37 H         121.1385  154.1179  144.1163 H       1  UNL1        0.0296
     38 H         126.8693  154.4718  148.4200 H       1  UNL1        0.0266
     39 H         126.5428  155.5119  147.0310 H       1  UNL1        0.0266
     40 H         126.6122  153.7273  145.6288 H       1  UNL1        0.0266
     41 H         126.9159  152.6278  146.9769 H       1  UNL1        0.0266
     42 H         119.8745  154.6886  146.8626 H       1  UNL1        0.0326
     43 H         120.0729  153.2568  147.8236 H       1  UNL1        0.0326
     44 H         123.6400  153.8618  144.1477 H       1  UNL1        0.0560
     45 H         123.1943  155.5378  143.9376 H       1  UNL1        0.0560
     46 H         117.9889  153.5343  146.1661 H       1  UNL1        0.0814
     47 H         119.1157  152.9500  144.9387 H       1  UNL1        0.0814
     48 H         122.3195  152.1718  143.7266 H       1  UNL1        0.0636
     49 H         122.6995  149.7854  143.3734 H       1  UNL1        0.0619
     50 H         121.5586  149.0757  147.4358 H       1  UNL1        0.0829
     51 H         118.6335  151.8259  148.5379 H       1  UNL1        0.0873
     52 H         118.0698  150.2703  147.9480 H       1  UNL1        0.0873
     53 H         122.3690  148.1806  145.2511 H       1  UNL1        0.0633
     54 H         114.0927  153.9212  148.5620 H       1  UNL1        0.0659
     55 H         113.1235  151.8164  147.3518 H       1  UNL1        0.0694
     56 H         117.1970  155.6027  149.9694 H       1  UNL1        0.0660
     57 H         115.7419  154.6719  150.3558 H       1  UNL1        0.0660
     58 H         115.8511  155.6193  148.8217 H       1  UNL1        0.0660
@<TRIPOS>UNITY_ATOM_ATTR
5 1
charge 1
@<TRIPOS>BOND
     1     1    23   ar
     2     1    26   ar
     3     2     6    1
     4     2    15    1
     5     3    24    1
     6     3    27    1
     7     4    16   ar
     8     4    20   ar
     9     5    17    1
    10     5    21    1
    11     5    28    1
    12     5    29    1
    13     6     8    1
    14     6     9    1
    15     6    10    1
    16     7     8    1
    17     7    11    1
    18     7    14    1
    19     7    16    1
    20     8    30    1
    21     8    31    1
    22     9    12    1
    23     9    32    1
    24     9    33    1
    25    10    13    1
    26    10    34    1
    27    10    35    1
    28    11    15    1
    29    11    36    1
    30    11    37    1
    31    12    13    1
    32    12    38    1
    33    12    39    1
    34    13    40    1
    35    13    41    1
    36    14    17    1
    37    14    42    1
    38    14    43    1
    39    15    44    1
    40    15    45    1
    41    16    18   ar
    42    17    46    1
    43    17    47    1
    44    18    19   ar
    45    18    48    1
    46    19    22   ar
    47    19    49    1
    48    20    22   ar
    49    20    50    1
    50    21    23    1
    51    21    51    1
    52    21    52    1
    53    22    53    1
    54    23    24   ar
    55    24    25   ar
    56    25    26   ar
    57    25    54    1
    58    26    55    1
    59    27    56    1
    60    27    57    1
    61    27    58    1
@<TRIPOS>MOLECULE
66553195
 58 61 0 0 0
SMALL
GASTEIGER

@<TRIPOS>ATOM
      1 S         119.2966  151.7935  141.9344 S.2     1  UNL1       -0.0926
      2 O         123.8363  154.8012  145.7930 O.3     1  UNL1       -0.3733
      3 O         115.7785  153.0982  142.8160 O.3     1  UNL1       -0.4941
      4 N         121.4317  151.2394  145.0482 N.ar    1  UNL1       -0.2593
      5 N         118.8164  151.8378  145.1826 N.4     1  UNL1        0.2308
      6 C         123.7028  154.2109  147.0887 C.3     1  UNL1        0.0704
      7 C         121.3534  153.3308  146.3514 C.3     1  UNL1        0.0224
      8 C         122.2137  154.0432  147.4431 C.3     1  UNL1       -0.0124
      9 C         124.3913  155.1619  148.0828 C.3     1  UNL1       -0.0237
     10 C         124.5801  152.9620  147.2379 C.3     1  UNL1       -0.0237
     11 C         121.6833  154.0383  145.0074 C.3     1  UNL1       -0.0181
     12 C         125.8875  154.9042  147.9058 C.3     1  UNL1       -0.0504
     13 C         126.0052  153.5075  147.3020 C.3     1  UNL1       -0.0504
     14 C         119.8396  153.5364  146.7044 C.3     1  UNL1       -0.0013
     15 C         123.1813  154.1018  144.7441 C.3     1  UNL1        0.0492
     16 C         121.6079  151.8159  146.2712 C.ar    1  UNL1        0.0478
     17 C         118.7966  153.2569  145.6105 C.3     1  UNL1       -0.0325
     18 C         121.8811  151.0344  147.3931 C.ar    1  UNL1       -0.0398
     19 C         122.0993  149.6657  147.2398 C.ar    1  UNL1       -0.0586
     20 C         121.7110  149.9165  144.9170 C.ar    1  UNL1        0.0279
     21 C         117.7597  151.4175  144.2209 C.3     1  UNL1        0.0021
     22 C         122.0359  149.0964  145.9771 C.ar    1  UNL1       -0.0436
     23 C         117.8851  152.0434  142.8752 C.ar    1  UNL1        0.0756
     24 C         116.9601  152.8214  142.2095 C.ar    1  UNL1        0.1353
     25 C         117.4304  153.2399  140.9307 C.ar    1  UNL1       -0.0124
     26 C         118.6902  152.7521  140.6581 C.ar    1  UNL1       -0.0203
     27 C         114.7961  153.6822  141.9631 C.3     1  UNL1        0.0788
     28 H         118.7895  151.2162  145.9974 H       1  UNL1        0.2017
     29 H         119.7382  151.6340  144.7442 H       1  UNL1        0.2017
     30 H         121.8067  155.0593  147.5586 H       1  UNL1        0.0302
     31 H         122.0990  153.5779  148.4281 H       1  UNL1        0.0302
     32 H         124.1036  154.9234  149.1144 H       1  UNL1        0.0293
     33 H         124.1558  156.2148  147.8944 H       1  UNL1        0.0293
     34 H         124.4931  152.2457  146.4179 H       1  UNL1        0.0293
     35 H         124.3556  152.4417  148.1768 H       1  UNL1        0.0293
     36 H         121.3043  155.0685  145.0559 H       1  UNL1        0.0296
     37 H         121.1916  153.5644  144.1516 H       1  UNL1        0.0296
     38 H         126.4145  154.9780  148.8626 H       1  UNL1        0.0266
     39 H         126.3312  155.6436  147.2294 H       1  UNL1        0.0266
     40 H         126.4332  153.5731  146.2947 H       1  UNL1        0.0266
     41 H         126.6574  152.8580  147.8943 H       1  UNL1        0.0266
     42 H         119.6912  154.5850  146.9972 H       1  UNL1        0.0326
     43 H         119.5859  152.9450  147.5950 H       1  UNL1        0.0326
     44 H         123.6226  153.1108  144.6037 H       1  UNL1        0.0560
     45 H         123.3622  154.6608  143.8198 H       1  UNL1        0.0560
     46 H         117.7941  153.4569  146.0043 H       1  UNL1        0.0814
     47 H         118.9558  153.8851  144.7296 H       1  UNL1        0.0814
     48 H         121.9546  151.4566  148.3901 H       1  UNL1        0.0636
     49 H         122.3481  149.0516  148.1032 H       1  UNL1        0.0619
     50 H         121.6580  149.5222  143.9044 H       1  UNL1        0.0829
     51 H         116.7978  151.6362  144.6963 H       1  UNL1        0.0873
     52 H         117.8436  150.3278  144.1373 H       1  UNL1        0.0873
     53 H         122.2432  148.0417  145.8262 H       1  UNL1        0.0633
     54 H         116.8909  153.8637  140.2281 H       1  UNL1        0.0659
     55 H         119.2798  152.9097  139.7635 H       1  UNL1        0.0694
     56 H         113.8679  153.7721  142.5356 H       1  UNL1        0.0660
     57 H         114.5938  153.0440  141.0958 H       1  UNL1        0.0660
     58 H         115.0966  154.6874  141.6503 H       1  UNL1        0.0660
@<TRIPOS>UNITY_ATOM_ATTR
5 1
charge 1
@<TRIPOS>BOND
     1     1    23   ar
     2     1    26   ar
     3     2     6    1
     4     2    15    1
     5     3    24    1
     6     3    27    1
     7     4    16   ar
     8     4    20   ar
     9     5    17    1
    10     5    21    1
    11     5    28    1
    12     5    29    1
    13     6     8    1
    14     6     9    1
    15     6    10    1
    16     7     8    1
    17     7    11    1
    18     7    14    1
    19     7    16    1
    20     8    30    1
    21     8    31    1
    22     9    12    1
    23     9    32    1
    24     9    33    1
    25    10    13    1
    26    10    34    1
    27    10    35    1
    28    11    15    1
    29    11    36    1
    30    11    37    1
    31    12    13    1
    32    12    38    1
    33    12    39    1
    34    13    40    1
    35    13    41    1
    36    14    17    1
    37    14    42    1
    38    14    43    1
    39    15    44    1
    40    15    45    1
    41    16    18   ar
    42    17    46    1
    43    17    47    1
    44    18    19   ar
    45    18    48    1
    46    19    22   ar
    47    19    49    1
    48    20    22   ar
    49    20    50    1
    50    21    23    1
    51    21    51    1
    52    21    52    1
    53    22    53    1
    54    23    24   ar
    55    24    25   ar
    56    25    26   ar
    57    25    54    1
    58    26    55    1
    59    27    56    1
    60    27    57    1
    61    27    58    1
@<TRIPOS>MOLECULE
66553195
 58 61 0 0 0
SMALL
GASTEIGER

@<TRIPOS>ATOM
      1 S         116.4018  152.7717  148.7945 S.2     1  UNL1       -0.0926
      2 O         124.0450  154.9583  146.0078 O.3     1  UNL1       -0.3733
      3 O         119.9125  153.3631  150.2741 O.3     1  UNL1       -0.4941
      4 N         121.8830  151.9294  144.3704 N.ar    1  UNL1       -0.2593
      5 N         118.1231  155.2792  147.3632 N.4     1  UNL1        0.2308
      6 C         123.8610  154.0065  147.0600 C.3     1  UNL1        0.0704
      7 C         121.4600  153.6014  146.1434 C.3     1  UNL1        0.0224
      8 C         122.3640  153.8647  147.3816 C.3     1  UNL1       -0.0124
      9 C         124.6224  154.5487  148.2815 C.3     1  UNL1       -0.0237
     10 C         124.6233  152.6998  146.8086 C.3     1  UNL1       -0.0237
     11 C         121.8735  154.6015  145.0269 C.3     1  UNL1       -0.0181
     12 C         126.0908  154.2568  147.9812 C.3     1  UNL1       -0.0504
     13 C         126.0910  153.0744  147.0150 C.3     1  UNL1       -0.0504
     14 C         119.9484  153.8059  146.5038 C.3     1  UNL1       -0.0013
     15 C         123.3776  154.6324  144.7924 C.3     1  UNL1        0.0492
     16 C         121.5866  152.1378  145.6740 C.ar    1  UNL1        0.0478
     17 C         119.5242  155.2361  146.8354 C.3     1  UNL1       -0.0325
     18 C         121.3556  151.0655  146.5420 C.ar    1  UNL1       -0.0398
     19 C         121.4642  149.7609  146.0648 C.ar    1  UNL1       -0.0586
     20 C         122.0033  150.6538  143.9349 C.ar    1  UNL1        0.0279
     21 C         117.9553  155.0660  148.8396 C.3     1  UNL1        0.0021
     22 C         121.8037  149.5473  144.7373 C.ar    1  UNL1       -0.0436
     23 C         117.8233  153.6323  149.2160 C.ar    1  UNL1        0.0756
     24 C         118.7195  152.8356  149.9001 C.ar    1  UNL1        0.1353
     25 C         118.2260  151.5108  150.0845 C.ar    1  UNL1       -0.0124
     26 C         116.9738  151.3433  149.5338 C.ar    1  UNL1       -0.0203
     27 C         120.7156  152.5043  151.0817 C.3     1  UNL1        0.0788
     28 H         117.5223  154.6106  146.8618 H       1  UNL1        0.2017
     29 H         117.7370  156.2071  147.1504 H       1  UNL1        0.2017
     30 H         122.0541  154.8164  147.8301 H       1  UNL1        0.0302
     31 H         122.2138  153.1114  148.1637 H       1  UNL1        0.0302
     32 H         124.3252  154.0183  149.1949 H       1  UNL1        0.0293
     33 H         124.4647  155.6212  148.4382 H       1  UNL1        0.0293
     34 H         124.4848  152.2731  145.8132 H       1  UNL1        0.0293
     35 H         124.3373  151.9392  147.5456 H       1  UNL1        0.0293
     36 H         121.5959  155.6173  145.3321 H       1  UNL1        0.0296
     37 H         121.3448  154.4022  144.0872 H       1  UNL1        0.0296
     38 H         126.6470  154.0363  148.8977 H       1  UNL1        0.0266
     39 H         126.5664  155.1246  147.5095 H       1  UNL1        0.0266
     40 H         126.5460  153.3737  146.0634 H       1  UNL1        0.0266
     41 H         126.6680  152.2294  147.4035 H       1  UNL1        0.0266
     42 H         119.7037  153.1493  147.3415 H       1  UNL1        0.0326
     43 H         119.3278  153.4585  145.6650 H       1  UNL1        0.0326
     44 H         123.7709  153.7055  144.3687 H       1  UNL1        0.0560
     45 H         123.6122  155.4252  144.0739 H       1  UNL1        0.0560
     46 H         120.1630  155.7346  147.5674 H       1  UNL1        0.0814
     47 H         119.5000  155.8440  145.9256 H       1  UNL1        0.0814
     48 H         121.0893  151.2205  147.5819 H       1  UNL1        0.0636
     49 H         121.2898  148.9157  146.7256 H       1  UNL1        0.0619
     50 H         122.2752  150.5434  142.8885 H       1  UNL1        0.0829
     51 H         117.0447  155.6104  149.1169 H       1  UNL1        0.0873
     52 H         118.7902  155.5625  149.3453 H       1  UNL1        0.0873
     53 H         121.9096  148.5447  144.3372 H       1  UNL1        0.0633
     54 H         118.7417  150.7035  150.5910 H       1  UNL1        0.0659
     55 H         116.3670  150.4460  149.5324 H       1  UNL1        0.0694
     56 H         121.6210  153.0540  151.3561 H       1  UNL1        0.0660
     57 H         121.0219  151.6144  150.5215 H       1  UNL1        0.0660
     58 H         120.1957  152.2286  152.0056 H       1  UNL1        0.0660
@<TRIPOS>UNITY_ATOM_ATTR
5 1
charge 1
@<TRIPOS>BOND
     1     1    23   ar
     2     1    26   ar
     3     2     6    1
     4     2    15    1
     5     3    24    1
     6     3    27    1
     7     4    16   ar
     8     4    20   ar
     9     5    17    1
    10     5    21    1
    11     5    28    1
    12     5    29    1
    13     6     8    1
    14     6     9    1
    15     6    10    1
    16     7     8    1
    17     7    11    1
    18     7    14    1
    19     7    16    1
    20     8    30    1
    21     8    31    1
    22     9    12    1
    23     9    32    1
    24     9    33    1
    25    10    13    1
    26    10    34    1
    27    10    35    1
    28    11    15    1
    29    11    36    1
    30    11    37    1
    31    12    13    1
    32    12    38    1
    33    12    39    1
    34    13    40    1
    35    13    41    1
    36    14    17    1
    37    14    42    1
    38    14    43    1
    39    15    44    1
    40    15    45    1
    41    16    18   ar
    42    17    46    1
    43    17    47    1
    44    18    19   ar
    45    18    48    1
    46    19    22   ar
    47    19    49    1
    48    20    22   ar
    49    20    50    1
    50    21    23    1
    51    21    51    1
    52    21    52    1
    53    22    53    1
    54    23    24   ar
    55    24    25   ar
    56    25    26   ar
    57    25    54    1
    58    26    55    1
    59    27    56    1
    60    27    57    1
    61    27    58    1
@<TRIPOS>MOLECULE
66553195
 58 61 0 0 0
SMALL
GASTEIGER

@<TRIPOS>ATOM
      1 S         116.7286  150.3305  149.6843 S.2     1  UNL1       -0.0926
      2 O         123.8369  154.9117  145.6677 O.3     1  UNL1       -0.3733
      3 O         118.0529  153.5293  151.3782 O.3     1  UNL1       -0.4941
      4 N         121.6280  151.1705  146.9723 N.ar    1  UNL1       -0.2593
      5 N         119.5250  151.8835  148.3736 N.4     1  UNL1        0.2308
      6 C         123.8019  154.0655  146.8194 C.3     1  UNL1        0.0704
      7 C         121.3198  153.5122  146.2548 C.3     1  UNL1        0.0224
      8 C         122.3590  153.9316  147.3368 C.3     1  UNL1       -0.0124
      9 C         124.6963  154.7248  147.8825 C.3     1  UNL1       -0.0237
     10 C         124.5551  152.7493  146.5887 C.3     1  UNL1       -0.0237
     11 C         121.5473  154.4603  145.0405 C.3     1  UNL1       -0.0181
     12 C         126.1249  154.4059  147.4450 C.3     1  UNL1       -0.0504
     13 C         126.0287  153.1519  146.5800 C.3     1  UNL1       -0.0504
     14 C         119.8554  153.7603  146.7628 C.3     1  UNL1       -0.0013
     15 C         123.0020  154.5040  144.5929 C.3     1  UNL1        0.0492
     16 C         121.4551  152.0164  145.9119 C.ar    1  UNL1        0.0478
     17 C         119.4967  153.3529  148.1971 C.3     1  UNL1       -0.0325
     18 C         121.3569  151.5208  144.6117 C.ar    1  UNL1       -0.0398
     19 C         121.5260  150.1563  144.3794 C.ar    1  UNL1       -0.0586
     20 C         121.8417  149.8530  146.7053 C.ar    1  UNL1        0.0279
     21 C         119.2917  151.3893  149.7578 C.3     1  UNL1        0.0021
     22 C         121.7915  149.3059  145.4404 C.ar    1  UNL1       -0.0436
     23 C         117.8676  151.5127  150.1745 C.ar    1  UNL1        0.0756
     24 C         117.2833  152.5011  150.9396 C.ar    1  UNL1        0.1353
     25 C         115.8896  152.2739  151.1350 C.ar    1  UNL1       -0.0124
     26 C         115.4604  151.1234  150.5088 C.ar    1  UNL1       -0.0203
     27 C         117.3949  154.4258  152.2709 C.3     1  UNL1        0.0788
     28 H         120.4548  151.5353  148.0667 H       1  UNL1        0.2017
     29 H         118.8604  151.4265  147.7395 H       1  UNL1        0.2017
     30 H         122.0549  154.9206  147.7110 H       1  UNL1        0.0302
     31 H         122.3396  153.2614  148.2048 H       1  UNL1        0.0302
     32 H         124.5149  154.2875  148.8722 H       1  UNL1        0.0293
     33 H         124.5454  155.8075  147.9511 H       1  UNL1        0.0293
     34 H         124.3043  152.2399  145.6558 H       1  UNL1        0.0293
     35 H         124.3780  152.0529  147.4175 H       1  UNL1        0.0293
     36 H         121.2789  155.4821  145.3453 H       1  UNL1        0.0296
     37 H         120.8905  154.2202  144.1979 H       1  UNL1        0.0296
     38 H         126.7780  154.2541  148.3103 H       1  UNL1        0.0266
     39 H         126.5432  155.2326  146.8595 H       1  UNL1        0.0266
     40 H         126.3556  153.3794  145.5586 H       1  UNL1        0.0266
     41 H         126.6656  152.3451  146.9564 H       1  UNL1        0.0266
     42 H         119.1419  153.2952  146.0684 H       1  UNL1        0.0326
     43 H         119.6531  154.8392  146.7111 H       1  UNL1        0.0326
     44 H         123.3457  153.5519  144.1803 H       1  UNL1        0.0560
     45 H         123.1123  155.2479  143.7967 H       1  UNL1        0.0560
     46 H         120.1739  153.7983  148.9317 H       1  UNL1        0.0814
     47 H         118.4768  153.6838  148.4181 H       1  UNL1        0.0814
     48 H         121.1730  152.1593  143.7543 H       1  UNL1        0.0636
     49 H         121.4750  149.7644  143.3653 H       1  UNL1        0.0619
     50 H         122.0606  149.2261  147.5669 H       1  UNL1        0.0829
     51 H         119.9700  151.9366  150.4213 H       1  UNL1        0.0873
     52 H         119.6104  150.3405  149.7626 H       1  UNL1        0.0873
     53 H         121.9612  148.2461  145.2798 H       1  UNL1        0.0633
     54 H         115.2147  152.9059  151.6996 H       1  UNL1        0.0659
     55 H         114.4584  150.7127  150.4962 H       1  UNL1        0.0694
     56 H         118.1256  155.1754  152.5895 H       1  UNL1        0.0660
     57 H         117.0379  153.9033  153.1649 H       1  UNL1        0.0660
     58 H         116.5757  154.9496  151.7671 H       1  UNL1        0.0660
@<TRIPOS>UNITY_ATOM_ATTR
5 1
charge 1
@<TRIPOS>BOND
     1     1    23   ar
     2     1    26   ar
     3     2     6    1
     4     2    15    1
     5     3    24    1
     6     3    27    1
     7     4    16   ar
     8     4    20   ar
     9     5    17    1
    10     5    21    1
    11     5    28    1
    12     5    29    1
    13     6     8    1
    14     6     9    1
    15     6    10    1
    16     7     8    1
    17     7    11    1
    18     7    14    1
    19     7    16    1
    20     8    30    1
    21     8    31    1
    22     9    12    1
    23     9    32    1
    24     9    33    1
    25    10    13    1
    26    10    34    1
    27    10    35    1
    28    11    15    1
    29    11    36    1
    30    11    37    1
    31    12    13    1
    32    12    38    1
    33    12    39    1
    34    13    40    1
    35    13    41    1
    36    14    17    1
    37    14    42    1
    38    14    43    1
    39    15    44    1
    40    15    45    1
    41    16    18   ar
    42    17    46    1
    43    17    47    1
    44    18    19   ar
    45    18    48    1
    46    19    22   ar
    47    19    49    1
    48    20    22   ar
    49    20    50    1
    50    21    23    1
    51    21    51    1
    52    21    52    1
    53    22    53    1
    54    23    24   ar
    55    24    25   ar
    56    25    26   ar
    57    25    54    1
    58    26    55    1
    59    27    56    1
    60    27    57    1
    61    27    58    1
@<TRIPOS>MOLECULE
66553195
 58 61 0 0 0
SMALL
GASTEIGER

@<TRIPOS>ATOM
      1 S         117.2144  152.0628  151.5485 S.2     1  UNL1       -0.0926
      2 O         123.9158  154.9578  145.6865 O.3     1  UNL1       -0.3733
      3 O         117.4988  150.1400  148.2221 O.3     1  UNL1       -0.4941
      4 N         121.7984  151.2731  147.1437 N.ar    1  UNL1       -0.2593
      5 N         119.7656  152.0043  148.6121 N.4     1  UNL1        0.2308
      6 C         123.9149  154.1488  146.8652 C.3     1  UNL1        0.0704
      7 C         121.4118  153.5959  146.4013 C.3     1  UNL1        0.0224
      8 C         122.4894  154.0390  147.4356 C.3     1  UNL1       -0.0124
      9 C         124.8479  154.8358  147.8765 C.3     1  UNL1       -0.0237
     10 C         124.6542  152.8221  146.6504 C.3     1  UNL1       -0.0237
     11 C         121.6009  154.5137  145.1581 C.3     1  UNL1       -0.0181
     12 C         126.2599  154.4928  147.4045 C.3     1  UNL1       -0.0504
     13 C         126.1282  153.2162  146.5783 C.3     1  UNL1       -0.0504
     14 C         119.9674  153.8569  146.9556 C.3     1  UNL1       -0.0013
     15 C         123.0381  154.5255  144.6559 C.3     1  UNL1        0.0492
     16 C         121.5278  152.0929  146.0839 C.ar    1  UNL1        0.0478
     17 C         119.6550  153.4614  148.4037 C.3     1  UNL1       -0.0325
     18 C         121.3019  151.5661  144.8121 C.ar    1  UNL1       -0.0398
     19 C         121.4371  150.1946  144.6006 C.ar    1  UNL1       -0.0586
     20 C         121.9738  149.9474  146.8930 C.ar    1  UNL1        0.0279
     21 C         119.4343  151.5018  149.9716 C.3     1  UNL1        0.0021
     22 C         121.7960  149.3688  145.6537 C.ar    1  UNL1       -0.0436
     23 C         117.9634  151.3727  150.1753 C.ar    1  UNL1        0.0756
     24 C         117.0533  150.7188  149.3685 C.ar    1  UNL1        0.1353
     25 C         115.7286  150.7873  149.8873 C.ar    1  UNL1       -0.0124
     26 C         115.6766  151.4890  151.0730 C.ar    1  UNL1       -0.0203
     27 C         116.5406  149.3057  147.5723 C.3     1  UNL1        0.0788
     28 H         120.7257  151.6947  148.3636 H       1  UNL1        0.2017
     29 H         119.1745  151.4905  147.9419 H       1  UNL1        0.2017
     30 H         122.2031  155.0401  147.7913 H       1  UNL1        0.0302
     31 H         122.4958  153.3952  148.3232 H       1  UNL1        0.0302
     32 H         124.6959  154.4323  148.8854 H       1  UNL1        0.0293
     33 H         124.7058  155.9211  147.9146 H       1  UNL1        0.0293
     34 H         124.3688  152.2851  145.7432 H       1  UNL1        0.0293
     35 H         124.5039  152.1533  147.5067 H       1  UNL1        0.0293
     36 H         121.3557  155.5451  145.4495 H       1  UNL1        0.0296
     37 H         120.9108  154.2631  144.3461 H       1  UNL1        0.0296
     38 H         126.9377  154.3591  148.2538 H       1  UNL1        0.0266
     39 H         126.6668  155.2995  146.7842 H       1  UNL1        0.0266
     40 H         126.4193  153.4140  145.5401 H       1  UNL1        0.0266
     41 H         126.7746  152.4168  146.9539 H       1  UNL1        0.0266
     42 H         119.2294  153.3858  146.2913 H       1  UNL1        0.0326
     43 H         119.7654  154.9356  146.8981 H       1  UNL1        0.0326
     44 H         123.3550  153.5556  144.2630 H       1  UNL1        0.0560
     45 H         123.1274  155.2419  143.8325 H       1  UNL1        0.0560
     46 H         120.3255  153.9543  149.1141 H       1  UNL1        0.0814
     47 H         118.6253  153.7469  148.6444 H       1  UNL1        0.0814
     48 H         121.0371  152.1854  143.9617 H       1  UNL1        0.0636
     49 H         121.2845  149.7776  143.6071 H       1  UNL1        0.0619
     50 H         122.2691  149.3410  147.7463 H       1  UNL1        0.0829
     51 H         119.9226  152.1631  150.6952 H       1  UNL1        0.0873
     52 H         119.9004  150.5131  150.0506 H       1  UNL1        0.0873
     53 H         121.9399  148.3033  145.5061 H       1  UNL1        0.0633
     54 H         114.8431  150.3569  149.4353 H       1  UNL1        0.0659
     55 H         114.8054  151.6926  151.6831 H       1  UNL1        0.0694
     56 H         116.1936  148.5078  148.2378 H       1  UNL1        0.0660
     57 H         117.0349  148.8370  146.7159 H       1  UNL1        0.0660
     58 H         115.7008  149.8969  147.1929 H       1  UNL1        0.0660
@<TRIPOS>UNITY_ATOM_ATTR
5 1
charge 1
@<TRIPOS>BOND
     1     1    23   ar
     2     1    26   ar
     3     2     6    1
     4     2    15    1
     5     3    24    1
     6     3    27    1
     7     4    16   ar
     8     4    20   ar
     9     5    17    1
    10     5    21    1
    11     5    28    1
    12     5    29    1
    13     6     8    1
    14     6     9    1
    15     6    10    1
    16     7     8    1
    17     7    11    1
    18     7    14    1
    19     7    16    1
    20     8    30    1
    21     8    31    1
    22     9    12    1
    23     9    32    1
    24     9    33    1
    25    10    13    1
    26    10    34    1
    27    10    35    1
    28    11    15    1
    29    11    36    1
    30    11    37    1
    31    12    13    1
    32    12    38    1
    33    12    39    1
    34    13    40    1
    35    13    41    1
    36    14    17    1
    37    14    42    1
    38    14    43    1
    39    15    44    1
    40    15    45    1
    41    16    18   ar
    42    17    46    1
    43    17    47    1
    44    18    19   ar
    45    18    48    1
    46    19    22   ar
    47    19    49    1
    48    20    22   ar
    49    20    50    1
    50    21    23    1
    51    21    51    1
    52    21    52    1
    53    22    53    1
    54    23    24   ar
    55    24    25   ar
    56    25    26   ar
    57    25    54    1
    58    26    55    1
    59    27    56    1
    60    27    57    1
    61    27    58    1
@<TRIPOS>MOLECULE
66553195
 58 61 0 0 0
SMALL
GASTEIGER

@<TRIPOS>ATOM
      1 S         121.2617  148.7685  150.2406 S.2     1  UNL1       -0.0926
      2 O         123.6931  155.1208  145.6351 O.3     1  UNL1       -0.3733
      3 O         117.5395  149.7570  150.1918 O.3     1  UNL1       -0.4941
      4 N         121.7237  151.1970  146.8815 N.ar    1  UNL1       -0.2593
      5 N         119.9185  151.7810  148.7372 N.4     1  UNL1        0.2308
      6 C         123.8427  154.1656  146.6875 C.3     1  UNL1        0.0704
      7 C         121.3144  153.5857  146.4320 C.3     1  UNL1        0.0224
      8 C         122.4938  153.9341  147.3880 C.3     1  UNL1       -0.0124
      9 C         124.8659  154.7483  147.6770 C.3     1  UNL1       -0.0237
     10 C         124.5797  152.9037  146.2223 C.3     1  UNL1       -0.0237
     11 C         121.3445  154.6505  145.2962 C.3     1  UNL1       -0.0181
     12 C         126.2239  154.5197  147.0169 C.3     1  UNL1       -0.0504
     13 C         126.0307  153.3515  146.0538 C.3     1  UNL1       -0.0504
     14 C         119.9349  153.7301  147.1691 C.3     1  UNL1       -0.0013
     15 C         122.7192  154.7905  144.6544 C.3     1  UNL1        0.0492
     16 C         121.4238  152.1335  145.9334 C.ar    1  UNL1        0.0478
     17 C         119.8348  153.2508  148.6212 C.3     1  UNL1       -0.0325
     18 C         121.1900  151.7626  144.6085 C.ar    1  UNL1       -0.0398
     19 C         121.3491  150.4314  144.2261 C.ar    1  UNL1       -0.0586
     20 C         121.9187  149.9160  146.4643 C.ar    1  UNL1        0.0279
     21 C         120.0609  151.2729  150.1287 C.3     1  UNL1        0.0021
     22 C         121.7374  149.4904  145.1648 C.ar    1  UNL1       -0.0436
     23 C         119.8945  149.7954  150.1899 C.ar    1  UNL1        0.0756
     24 C         118.7156  149.0808  150.2320 C.ar    1  UNL1        0.1353
     25 C         118.9402  147.6751  150.2922 C.ar    1  UNL1       -0.0124
     26 C         120.2843  147.3688  150.3043 C.ar    1  UNL1       -0.0203
     27 C         116.4033  148.9836  150.5750 C.3     1  UNL1        0.0788
     28 H         120.7279  151.4284  148.1856 H       1  UNL1        0.2017
     29 H         119.1009  151.3330  148.3059 H       1  UNL1        0.2017
     30 H         122.2296  154.8728  147.8974 H       1  UNL1        0.0302
     31 H         122.6157  153.1831  148.1780 H       1  UNL1        0.0302
     32 H         124.8341  154.2120  148.6337 H       1  UNL1        0.0293
     33 H         124.7056  155.8137  147.8741 H       1  UNL1        0.0293
     34 H         124.2104  152.4816  145.2853 H       1  UNL1        0.0293
     35 H         124.5316  152.1230  146.9914 H       1  UNL1        0.0293
     36 H         121.1002  155.6290  145.7341 H       1  UNL1        0.0296
     37 H         120.5789  154.4662  144.5351 H       1  UNL1        0.0296
     38 H         126.9951  154.3077  147.7645 H       1  UNL1        0.0266
     39 H         126.5396  155.4120  146.4643 H       1  UNL1        0.0266
     40 H         126.2097  153.6853  145.0251 H       1  UNL1        0.0266
     41 H         126.7275  152.5327  146.2592 H       1  UNL1        0.0266
     42 H         119.1429  153.2551  146.5736 H       1  UNL1        0.0326
     43 H         119.6746  154.7971  147.2020 H       1  UNL1        0.0326
     44 H         123.0211  153.8970  144.1019 H       1  UNL1        0.0560
     45 H         122.6971  155.6123  143.9307 H       1  UNL1        0.0560
     46 H         120.6137  153.6892  149.2518 H       1  UNL1        0.0814
     47 H         118.8622  153.5375  149.0367 H       1  UNL1        0.0814
     48 H         120.9059  152.4757  143.8421 H       1  UNL1        0.0636
     49 H         121.1924  150.1377  143.1901 H       1  UNL1        0.0619
     50 H         122.2383  149.2127  147.2293 H       1  UNL1        0.0829
     51 H         119.2933  151.7682  150.7345 H       1  UNL1        0.0873
     52 H         121.0431  151.5979  150.4892 H       1  UNL1        0.0873
     53 H         121.9001  148.4544  144.8860 H       1  UNL1        0.0633
     54 H         118.1747  146.9093  150.3260 H       1  UNL1        0.0659
     55 H         120.7375  146.3864  150.3516 H       1  UNL1        0.0694
     56 H         116.1883  148.2096  149.8312 H       1  UNL1        0.0660
     57 H         115.5414  149.6562  150.6190 H       1  UNL1        0.0660
     58 H         116.5378  148.5460  151.5705 H       1  UNL1        0.0660
@<TRIPOS>UNITY_ATOM_ATTR
5 1
charge 1
@<TRIPOS>BOND
     1     1    23   ar
     2     1    26   ar
     3     2     6    1
     4     2    15    1
     5     3    24    1
     6     3    27    1
     7     4    16   ar
     8     4    20   ar
     9     5    17    1
    10     5    21    1
    11     5    28    1
    12     5    29    1
    13     6     8    1
    14     6     9    1
    15     6    10    1
    16     7     8    1
    17     7    11    1
    18     7    14    1
    19     7    16    1
    20     8    30    1
    21     8    31    1
    22     9    12    1
    23     9    32    1
    24     9    33    1
    25    10    13    1
    26    10    34    1
    27    10    35    1
    28    11    15    1
    29    11    36    1
    30    11    37    1
    31    12    13    1
    32    12    38    1
    33    12    39    1
    34    13    40    1
    35    13    41    1
    36    14    17    1
    37    14    42    1
    38    14    43    1
    39    15    44    1
    40    15    45    1
    41    16    18   ar
    42    17    46    1
    43    17    47    1
    44    18    19   ar
    45    18    48    1
    46    19    22   ar
    47    19    49    1
    48    20    22   ar
    49    20    50    1
    50    21    23    1
    51    21    51    1
    52    21    52    1
    53    22    53    1
    54    23    24   ar
    55    24    25   ar
    56    25    26   ar
    57    25    54    1
    58    26    55    1
    59    27    56    1
    60    27    57    1
    61    27    58    1
@<TRIPOS>MOLECULE
66553195
 58 61 0 0 0
SMALL
GASTEIGER

@<TRIPOS>ATOM
      1 S         116.9517  157.0868  144.9067 S.2     1  UNL1       -0.0926
      2 O         124.0413  154.8978  145.6754 O.3     1  UNL1       -0.3733
      3 O         118.2496  159.6886  147.4358 O.3     1  UNL1       -0.4941
      4 N         121.1976  151.7760  144.9145 N.ar    1  UNL1       -0.2593
      5 N         118.1208  155.4747  147.3792 N.4     1  UNL1        0.2308
      6 C         123.9568  154.2273  146.9371 C.3     1  UNL1        0.0704
      7 C         121.4629  153.7200  146.3976 C.3     1  UNL1        0.0224
      8 C         122.4990  154.2253  147.4396 C.3     1  UNL1       -0.0124
      9 C         124.8607  155.0037  147.9102 C.3     1  UNL1       -0.0237
     10 C         124.6688  152.8692  146.9131 C.3     1  UNL1       -0.0237
     11 C         121.7480  154.4862  145.0742 C.3     1  UNL1       -0.0181
     12 C         126.2835  154.5784  147.5496 C.3     1  UNL1       -0.0504
     13 C         126.1543  153.2218  146.8621 C.3     1  UNL1       -0.0504
     14 C         119.9955  153.9868  146.8664 C.3     1  UNL1       -0.0013
     15 C         123.2055  154.3595  144.6547 C.3     1  UNL1        0.0492
     16 C         121.5091  152.1971  146.1650 C.ar    1  UNL1        0.0478
     17 C         119.5963  155.4415  147.1070 C.3     1  UNL1       -0.0325
     18 C         121.7373  151.2827  147.1953 C.ar    1  UNL1       -0.0398
     19 C         121.7094  149.9167  146.9172 C.ar    1  UNL1       -0.0586
     20 C         121.1845  150.4459  144.6673 C.ar    1  UNL1        0.0279
     21 C         117.5439  156.8360  147.6221 C.3     1  UNL1        0.0021
     22 C         121.4345  149.4865  145.6278 C.ar    1  UNL1       -0.0436
     23 C         117.5048  157.7034  146.4096 C.ar    1  UNL1        0.0756
     24 C         117.8302  159.0417  146.3197 C.ar    1  UNL1        0.1353
     25 C         117.6753  159.5462  144.9958 C.ar    1  UNL1       -0.0124
     26 C         117.2099  158.5835  144.1266 C.ar    1  UNL1       -0.0203
     27 C         118.3345  161.1062  147.3043 C.3     1  UNL1        0.0788
     28 H         117.8990  154.8783  148.1847 H       1  UNL1        0.2017
     29 H         117.6190  155.0754  146.5739 H       1  UNL1        0.2017
     30 H         122.2511  155.2707  147.6686 H       1  UNL1        0.0302
     31 H         122.4183  153.6928  148.3934 H       1  UNL1        0.0302
     32 H         124.6505  154.7204  148.9490 H       1  UNL1        0.0293
     33 H         124.7473  156.0893  147.8193 H       1  UNL1        0.0293
     34 H         124.4092  152.2344  146.0631 H       1  UNL1        0.0293
     35 H         124.4659  152.3107  147.8348 H       1  UNL1        0.0293
     36 H         121.5579  155.5553  145.2250 H       1  UNL1        0.0296
     37 H         121.0885  154.1656  144.2596 H       1  UNL1        0.0296
     38 H         126.9162  154.5235  148.4413 H       1  UNL1        0.0266
     39 H         126.7422  155.3020  146.8661 H       1  UNL1        0.0266
     40 H         126.4919  153.2990  145.8218 H       1  UNL1        0.0266
     41 H         126.7649  152.4554  147.3496 H       1  UNL1        0.0266
     42 H         119.8051  153.4249  147.7923 H       1  UNL1        0.0326
     43 H         119.3082  153.5651  146.1178 H       1  UNL1        0.0326
     44 H         123.4934  153.3322  144.4153 H       1  UNL1        0.0560
     45 H         123.3755  154.9544  143.7512 H       1  UNL1        0.0560
     46 H         120.0914  155.8624  147.9864 H       1  UNL1        0.0814
     47 H         119.7720  156.0728  146.2348 H       1  UNL1        0.0814
     48 H         121.9408  151.5968  148.2125 H       1  UNL1        0.0636
     49 H         121.9039  149.1917  147.7037 H       1  UNL1        0.0619
     50 H         120.9581  150.1651  143.6421 H       1  UNL1        0.0829
     51 H         118.1254  157.2801  148.4366 H       1  UNL1        0.0873
     52 H         116.5249  156.6684  147.9886 H       1  UNL1        0.0873
     53 H         121.4127  148.4311  145.3789 H       1  UNL1        0.0633
     54 H         117.8837  160.5597  144.6737 H       1  UNL1        0.0659
     55 H         116.9997  158.6953  143.0699 H       1  UNL1        0.0694
     56 H         118.5912  161.5177  148.2852 H       1  UNL1        0.0660
     57 H         117.3723  161.5350  147.0032 H       1  UNL1        0.0660
     58 H         119.1271  161.3876  146.6035 H       1  UNL1        0.0660
@<TRIPOS>UNITY_ATOM_ATTR
5 1
charge 1
@<TRIPOS>BOND
     1     1    23   ar
     2     1    26   ar
     3     2     6    1
     4     2    15    1
     5     3    24    1
     6     3    27    1
     7     4    16   ar
     8     4    20   ar
     9     5    17    1
    10     5    21    1
    11     5    28    1
    12     5    29    1
    13     6     8    1
    14     6     9    1
    15     6    10    1
    16     7     8    1
    17     7    11    1
    18     7    14    1
    19     7    16    1
    20     8    30    1
    21     8    31    1
    22     9    12    1
    23     9    32    1
    24     9    33    1
    25    10    13    1
    26    10    34    1
    27    10    35    1
    28    11    15    1
    29    11    36    1
    30    11    37    1
    31    12    13    1
    32    12    38    1
    33    12    39    1
    34    13    40    1
    35    13    41    1
    36    14    17    1
    37    14    42    1
    38    14    43    1
    39    15    44    1
    40    15    45    1
    41    16    18   ar
    42    17    46    1
    43    17    47    1
    44    18    19   ar
    45    18    48    1
    46    19    22   ar
    47    19    49    1
    48    20    22   ar
    49    20    50    1
    50    21    23    1
    51    21    51    1
    52    21    52    1
    53    22    53    1
    54    23    24   ar
    55    24    25   ar
    56    25    26   ar
    57    25    54    1
    58    26    55    1
    59    27    56    1
    60    27    57    1
    61    27    58    1
@<TRIPOS>MOLECULE
66553195
 58 61 0 0 0
SMALL
GASTEIGER

@<TRIPOS>ATOM
      1 S         121.2278  149.7372  150.1150 S.2     1  UNL1       -0.0926
      2 O         123.7367  155.0818  145.5365 O.3     1  UNL1       -0.3733
      3 O         118.7699  151.7335  152.3124 O.3     1  UNL1       -0.4941
      4 N         120.4753  151.4344  145.6982 N.ar    1  UNL1       -0.2593
      5 N         119.2946  151.6800  148.3050 N.4     1  UNL1        0.2308
      6 C         124.0054  154.4365  146.7802 C.3     1  UNL1        0.0704
      7 C         121.5464  153.4437  146.5987 C.3     1  UNL1        0.0224
      8 C         122.6993  154.0057  147.4908 C.3     1  UNL1       -0.0124
      9 C         124.7650  155.4582  147.6504 C.3     1  UNL1       -0.0237
     10 C         125.0914  153.3655  146.6166 C.3     1  UNL1       -0.0237
     11 C         121.5337  154.2135  145.2481 C.3     1  UNL1       -0.0181
     12 C         126.1881  155.4830  147.0941 C.3     1  UNL1       -0.0504
     13 C         126.3744  154.1561  146.3656 C.3     1  UNL1       -0.0504
     14 C         120.1658  153.7720  147.2895 C.3     1  UNL1       -0.0013
     15 C         122.9174  154.3396  144.6452 C.3     1  UNL1        0.0492
     16 C         121.5910  151.9388  146.2976 C.ar    1  UNL1        0.0478
     17 C         119.8438  153.0361  148.5912 C.3     1  UNL1       -0.0325
     18 C         122.6264  151.0878  146.6626 C.ar    1  UNL1       -0.0398
     19 C         122.5711  149.7377  146.3099 C.ar    1  UNL1       -0.0586
     20 C         120.4665  150.1347  145.3117 C.ar    1  UNL1        0.0279
     21 C         118.7863  150.9144  149.4776 C.3     1  UNL1        0.0021
     22 C         121.4829  149.2524  145.6023 C.ar    1  UNL1       -0.0436
     23 C         119.8256  150.6410  150.5113 C.ar    1  UNL1        0.0756
     24 C         119.8214  151.0190  151.8381 C.ar    1  UNL1        0.1353
     25 C         120.9952  150.5916  152.5239 C.ar    1  UNL1       -0.0124
     26 C         121.8460  149.8855  151.7003 C.ar    1  UNL1       -0.0203
     27 C         118.7251  151.8553  153.7324 C.3     1  UNL1        0.0788
     28 H         120.0073  151.1075  147.8310 H       1  UNL1        0.2017
     29 H         118.5518  151.7564  147.5991 H       1  UNL1        0.2017
     30 H         122.3076  154.9210  147.9588 H       1  UNL1        0.0302
     31 H         122.9210  153.3361  148.3308 H       1  UNL1        0.0302
     32 H         124.7919  155.1328  148.6980 H       1  UNL1        0.0293
     33 H         124.3194  156.4581  147.6121 H       1  UNL1        0.0293
     34 H         124.9181  152.6718  145.7907 H       1  UNL1        0.0293
     35 H         125.2106  152.7886  147.5416 H       1  UNL1        0.0293
     36 H         121.1579  155.2310  145.4249 H       1  UNL1        0.0296
     37 H         120.8551  153.7513  144.5211 H       1  UNL1        0.0296
     38 H         126.9209  155.6115  147.8974 H       1  UNL1        0.0266
     39 H         126.3177  156.3170  146.3952 H       1  UNL1        0.0266
     40 H         126.5074  154.3362  145.2924 H       1  UNL1        0.0266
     41 H         127.2566  153.6136  146.7197 H       1  UNL1        0.0266
     42 H         119.3416  153.6213  146.5778 H       1  UNL1        0.0326
     43 H         120.1461  154.8478  147.5149 H       1  UNL1        0.0326
     44 H         123.3625  153.3690  144.4079 H       1  UNL1        0.0560
     45 H         122.8588  154.9049  143.7092 H       1  UNL1        0.0560
     46 H         120.7214  152.9312  149.2342 H       1  UNL1        0.0814
     47 H         119.0607  153.5757  149.1345 H       1  UNL1        0.0814
     48 H         123.4920  151.4237  147.2154 H       1  UNL1        0.0636
     49 H         123.3936  149.0727  146.5670 H       1  UNL1        0.0619
     50 H         119.5918  149.8164  144.7494 H       1  UNL1        0.0829
     51 H         118.3889  149.9743  149.0787 H       1  UNL1        0.0873
     52 H         117.9429  151.4858  149.8789 H       1  UNL1        0.0873
     53 H         121.4368  148.2169  145.2807 H       1  UNL1        0.0633
     54 H         121.2255  150.7780  153.5659 H       1  UNL1        0.0659
     55 H         122.7995  149.4437  151.9615 H       1  UNL1        0.0694
     56 H         117.7892  152.3578  153.9948 H       1  UNL1        0.0660
     57 H         119.5521  152.4725  154.0982 H       1  UNL1        0.0660
     58 H         118.7239  150.8721  154.2158 H       1  UNL1        0.0660
@<TRIPOS>UNITY_ATOM_ATTR
5 1
charge 1
@<TRIPOS>BOND
     1     1    23   ar
     2     1    26   ar
     3     2     6    1
     4     2    15    1
     5     3    24    1
     6     3    27    1
     7     4    16   ar
     8     4    20   ar
     9     5    17    1
    10     5    21    1
    11     5    28    1
    12     5    29    1
    13     6     8    1
    14     6     9    1
    15     6    10    1
    16     7     8    1
    17     7    11    1
    18     7    14    1
    19     7    16    1
    20     8    30    1
    21     8    31    1
    22     9    12    1
    23     9    32    1
    24     9    33    1
    25    10    13    1
    26    10    34    1
    27    10    35    1
    28    11    15    1
    29    11    36    1
    30    11    37    1
    31    12    13    1
    32    12    38    1
    33    12    39    1
    34    13    40    1
    35    13    41    1
    36    14    17    1
    37    14    42    1
    38    14    43    1
    39    15    44    1
    40    15    45    1
    41    16    18   ar
    42    17    46    1
    43    17    47    1
    44    18    19   ar
    45    18    48    1
    46    19    22   ar
    47    19    49    1
    48    20    22   ar
    49    20    50    1
    50    21    23    1
    51    21    51    1
    52    21    52    1
    53    22    53    1
    54    23    24   ar
    55    24    25   ar
    56    25    26   ar
    57    25    54    1
    58    26    55    1
    59    27    56    1
    60    27    57    1
    61    27    58    1
@<TRIPOS>MOLECULE
66553195
 58 61 0 0 0
SMALL
GASTEIGER

@<TRIPOS>ATOM
      1 S         114.3881  155.8989  146.1342 S.2     1  UNL1       -0.0926
      2 O         124.0952  154.8824  145.8304 O.3     1  UNL1       -0.3733
      3 O         116.3699  155.4055  149.4073 O.3     1  UNL1       -0.4941
      4 N         121.3059  151.5316  147.2366 N.ar    1  UNL1       -0.2593
      5 N         118.1959  155.7179  147.2862 N.4     1  UNL1        0.2308
      6 C         123.8640  154.1457  147.0378 C.3     1  UNL1        0.0704
      7 C         121.4248  153.7606  146.2311 C.3     1  UNL1        0.0224
      8 C         122.3692  154.1945  147.3926 C.3     1  UNL1       -0.0124
      9 C         124.7013  154.8213  148.1368 C.3     1  UNL1       -0.0237
     10 C         124.5063  152.7535  147.0041 C.3     1  UNL1       -0.0237
     11 C         121.8614  154.5442  144.9681 C.3     1  UNL1       -0.0181
     12 C         126.1303  154.3410  147.8907 C.3     1  UNL1       -0.0504
     13 C         126.0046  153.0240  147.1297 C.3     1  UNL1       -0.0504
     14 C         119.9341  154.0807  146.5988 C.3     1  UNL1       -0.0013
     15 C         123.3588  154.4300  144.7017 C.3     1  UNL1        0.0492
     16 C         121.4524  152.2284  146.0796 C.ar    1  UNL1        0.0478
     17 C         119.5540  155.5558  146.6935 C.3     1  UNL1       -0.0325
     18 C         121.5407  151.5710  144.8523 C.ar    1  UNL1       -0.0398
     19 C         121.5312  150.1767  144.8203 C.ar    1  UNL1       -0.0586
     20 C         121.3089  150.1798  147.1792 C.ar    1  UNL1        0.0279
     21 C         117.0364  155.1807  146.5121 C.3     1  UNL1        0.0021
     22 C         121.4197  149.4640  146.0045 C.ar    1  UNL1       -0.0436
     23 C         115.7333  155.5530  147.1377 C.ar    1  UNL1        0.0756
     24 C         115.4067  155.6461  148.4776 C.ar    1  UNL1        0.1353
     25 C         114.0425  156.0120  148.6731 C.ar    1  UNL1       -0.0124
     26 C         113.3752  156.1785  147.4791 C.ar    1  UNL1       -0.0203
     27 C         115.9110  155.4563  150.7590 C.3     1  UNL1        0.0788
     28 H         118.0145  156.7166  147.4487 H       1  UNL1        0.2017
     29 H         118.1467  155.2981  148.2287 H       1  UNL1        0.2017
     30 H         122.1437  155.2393  147.6406 H       1  UNL1        0.0302
     31 H         122.1746  153.6254  148.3102 H       1  UNL1        0.0302
     32 H         124.3761  154.4944  149.1323 H       1  UNL1        0.0293
     33 H         124.6487  155.9146  148.0985 H       1  UNL1        0.0293
     34 H         124.3096  152.1817  146.0951 H       1  UNL1        0.0293
     35 H         124.1747  152.1554  147.8618 H       1  UNL1        0.0293
     36 H         121.6598  155.6113  145.1247 H       1  UNL1        0.0296
     37 H         121.2867  154.2520  144.0828 H       1  UNL1        0.0296
     38 H         126.6727  154.2161  148.8334 H       1  UNL1        0.0266
     39 H         126.6841  155.0697  147.2879 H       1  UNL1        0.0266
     40 H         126.4582  153.1246  146.1367 H       1  UNL1        0.0266
     41 H         126.5170  152.2041  147.6430 H       1  UNL1        0.0266
     42 H         119.6874  153.5970  147.5547 H       1  UNL1        0.0326
     43 H         119.2856  153.6105  145.8463 H       1  UNL1        0.0326
     44 H         123.6660  153.4193  144.4221 H       1  UNL1        0.0560
     45 H         123.6243  155.0796  143.8608 H       1  UNL1        0.0560
     46 H         120.2223  156.1145  147.3521 H       1  UNL1        0.0814
     47 H         119.5302  156.0427  145.7142 H       1  UNL1        0.0814
     48 H         121.6260  152.0998  143.9104 H       1  UNL1        0.0636
     49 H         121.6161  149.6494  143.8731 H       1  UNL1        0.0619
     50 H         121.2176  149.6724  148.1358 H       1  UNL1        0.0829
     51 H         117.1353  154.0908  146.4881 H       1  UNL1        0.0873
     52 H         117.1300  155.5771  145.4955 H       1  UNL1        0.0873
     53 H         121.4190  148.3795  146.0104 H       1  UNL1        0.0633
     54 H         113.5489  156.1506  149.6277 H       1  UNL1        0.0659
     55 H         112.3368  156.4500  147.3340 H       1  UNL1        0.0694
     56 H         116.7610  155.2239  151.4075 H       1  UNL1        0.0660
     57 H         115.1339  154.7062  150.9407 H       1  UNL1        0.0660
     58 H         115.5588  156.4610  151.0159 H       1  UNL1        0.0660
@<TRIPOS>UNITY_ATOM_ATTR
5 1
charge 1
@<TRIPOS>BOND
     1     1    23   ar
     2     1    26   ar
     3     2     6    1
     4     2    15    1
     5     3    24    1
     6     3    27    1
     7     4    16   ar
     8     4    20   ar
     9     5    17    1
    10     5    21    1
    11     5    28    1
    12     5    29    1
    13     6     8    1
    14     6     9    1
    15     6    10    1
    16     7     8    1
    17     7    11    1
    18     7    14    1
    19     7    16    1
    20     8    30    1
    21     8    31    1
    22     9    12    1
    23     9    32    1
    24     9    33    1
    25    10    13    1
    26    10    34    1
    27    10    35    1
    28    11    15    1
    29    11    36    1
    30    11    37    1
    31    12    13    1
    32    12    38    1
    33    12    39    1
    34    13    40    1
    35    13    41    1
    36    14    17    1
    37    14    42    1
    38    14    43    1
    39    15    44    1
    40    15    45    1
    41    16    18   ar
    42    17    46    1
    43    17    47    1
    44    18    19   ar
    45    18    48    1
    46    19    22   ar
    47    19    49    1
    48    20    22   ar
    49    20    50    1
    50    21    23    1
    51    21    51    1
    52    21    52    1
    53    22    53    1
    54    23    24   ar
    55    24    25   ar
    56    25    26   ar
    57    25    54    1
    58    26    55    1
    59    27    56    1
    60    27    57    1
    61    27    58    1
@<TRIPOS>MOLECULE
66553195
 58 61 0 0 0
SMALL
GASTEIGER

@<TRIPOS>ATOM
      1 S         116.6745  152.5021  142.4215 S.2     1  UNL1       -0.0926
      2 O         123.8396  154.9854  145.7459 O.3     1  UNL1       -0.3733
      3 O         115.3504  155.4533  144.5136 O.3     1  UNL1       -0.4941
      4 N         121.3775  151.5520  144.7333 N.ar    1  UNL1       -0.2593
      5 N         117.4525  153.4545  145.9803 N.4     1  UNL1        0.2308
      6 C         123.7020  154.2945  146.9906 C.3     1  UNL1        0.0704
      7 C         121.3427  153.5129  146.2032 C.3     1  UNL1        0.0224
      8 C         122.2126  154.1262  147.3408 C.3     1  UNL1       -0.0124
      9 C         124.4146  155.1484  148.0531 C.3     1  UNL1       -0.0237
     10 C         124.5531  153.0193  147.0342 C.3     1  UNL1       -0.0237
     11 C         121.6719  154.3191  144.9142 C.3     1  UNL1       -0.0181
     12 C         125.9041  154.8763  147.8442 C.3     1  UNL1       -0.0504
     13 C         125.9898  153.5275  147.1351 C.3     1  UNL1       -0.0504
     14 C         119.8344  153.7122  146.5674 C.3     1  UNL1       -0.0013
     15 C         123.1694  154.3791  144.6477 C.3     1  UNL1        0.0492
     16 C         121.5563  152.0076  145.9991 C.ar    1  UNL1        0.0478
     17 C         118.8507  153.1508  145.5338 C.3     1  UNL1       -0.0325
     18 C         121.7883  151.1247  147.0537 C.ar    1  UNL1       -0.0398
     19 C         121.9217  149.7624  146.7886 C.ar    1  UNL1       -0.0586
     20 C         121.5345  150.2284  144.4973 C.ar    1  UNL1        0.0279
     21 C         116.3862  152.7805  145.1717 C.3     1  UNL1        0.0021
     22 C         121.8040  149.3031  145.4852 C.ar    1  UNL1       -0.0436
     23 C         116.2287  153.3815  143.8198 C.ar    1  UNL1        0.0756
     24 C         115.7310  154.6289  143.5043 C.ar    1  UNL1        0.1353
     25 C         115.7239  154.8648  142.0993 C.ar    1  UNL1       -0.0124
     26 C         116.2110  153.7855  141.3935 C.ar    1  UNL1       -0.0203
     27 C         114.5637  156.5682  144.0928 C.3     1  UNL1        0.0788
     28 H         117.2754  154.4680  145.9292 H       1  UNL1        0.2017
     29 H         117.3288  153.1814  146.9608 H       1  UNL1        0.2017
     30 H         121.8172  155.1344  147.5375 H       1  UNL1        0.0302
     31 H         122.0970  153.5843  148.2858 H       1  UNL1        0.0302
     32 H         124.1283  154.8330  149.0642 H       1  UNL1        0.0293
     33 H         124.1993  156.2175  147.9519 H       1  UNL1        0.0293
     34 H         124.4477  152.3726  146.1602 H       1  UNL1        0.0293
     35 H         124.3199  152.4297  147.9290 H       1  UNL1        0.0293
     36 H         121.3107  155.3485  145.0460 H       1  UNL1        0.0296
     37 H         121.1647  153.9238  144.0276 H       1  UNL1        0.0296
     38 H         126.4398  154.8675  148.7991 H       1  UNL1        0.0266
     39 H         126.3570  155.6562  147.2216 H       1  UNL1        0.0266
     40 H         126.4179  153.6603  146.1346 H       1  UNL1        0.0266
     41 H         126.6283  152.8206  147.6743 H       1  UNL1        0.0266
     42 H         119.6330  154.7837  146.7025 H       1  UNL1        0.0326
     43 H         119.6309  153.2409  147.5392 H       1  UNL1        0.0326
     44 H         123.5950  153.3957  144.4281 H       1  UNL1        0.0560
     45 H         123.3555  155.0062  143.7694 H       1  UNL1        0.0560
     46 H         118.9796  153.6113  144.5516 H       1  UNL1        0.0814
     47 H         118.9152  152.0626  145.4588 H       1  UNL1        0.0814
     48 H         121.8813  151.4611  148.0805 H       1  UNL1        0.0636
     49 H         122.1296  149.0641  147.5961 H       1  UNL1        0.0619
     50 H         121.4334  149.9238  143.4588 H       1  UNL1        0.0829
     51 H         115.4589  152.9020  145.7431 H       1  UNL1        0.0873
     52 H         116.6202  151.7106  145.1500 H       1  UNL1        0.0873
     53 H         121.9225  148.2515  145.2466 H       1  UNL1        0.0633
     54 H         115.3880  155.7696  141.6067 H       1  UNL1        0.0659
     55 H         116.3165  153.6907  140.3198 H       1  UNL1        0.0694
     56 H         114.2226  157.0932  144.9901 H       1  UNL1        0.0660
     57 H         113.6771  156.2417  143.5379 H       1  UNL1        0.0660
     58 H         115.1627  157.2678  143.5009 H       1  UNL1        0.0660
@<TRIPOS>UNITY_ATOM_ATTR
5 1
charge 1
@<TRIPOS>BOND
     1     1    23   ar
     2     1    26   ar
     3     2     6    1
     4     2    15    1
     5     3    24    1
     6     3    27    1
     7     4    16   ar
     8     4    20   ar
     9     5    17    1
    10     5    21    1
    11     5    28    1
    12     5    29    1
    13     6     8    1
    14     6     9    1
    15     6    10    1
    16     7     8    1
    17     7    11    1
    18     7    14    1
    19     7    16    1
    20     8    30    1
    21     8    31    1
    22     9    12    1
    23     9    32    1
    24     9    33    1
    25    10    13    1
    26    10    34    1
    27    10    35    1
    28    11    15    1
    29    11    36    1
    30    11    37    1
    31    12    13    1
    32    12    38    1
    33    12    39    1
    34    13    40    1
    35    13    41    1
    36    14    17    1
    37    14    42    1
    38    14    43    1
    39    15    44    1
    40    15    45    1
    41    16    18   ar
    42    17    46    1
    43    17    47    1
    44    18    19   ar
    45    18    48    1
    46    19    22   ar
    47    19    49    1
    48    20    22   ar
    49    20    50    1
    50    21    23    1
    51    21    51    1
    52    21    52    1
    53    22    53    1
    54    23    24   ar
    55    24    25   ar
    56    25    26   ar
    57    25    54    1
    58    26    55    1
    59    27    56    1
    60    27    57    1
    61    27    58    1
@<TRIPOS>MOLECULE
66553195
 58 61 0 0 0
SMALL
GASTEIGER

@<TRIPOS>ATOM
      1 S         116.1379  155.9222  143.8014 S.2     1  UNL1       -0.0926
      2 O         123.9028  154.8785  145.9409 O.3     1  UNL1       -0.3733
      3 O         119.0183  157.4111  145.8848 O.3     1  UNL1       -0.4941
      4 N         121.1979  151.6962  144.8025 N.ar    1  UNL1       -0.2593
      5 N         117.3967  153.8476  146.1261 N.4     1  UNL1        0.2308
      6 C         123.7239  154.1362  147.1507 C.3     1  UNL1        0.0704
      7 C         121.3012  153.5864  146.3627 C.3     1  UNL1        0.0224
      8 C         122.2303  154.0717  147.5155 C.3     1  UNL1       -0.0124
      9 C         124.5176  154.8731  148.2426 C.3     1  UNL1       -0.0237
     10 C         124.4667  152.7948  147.1161 C.3     1  UNL1       -0.0237
     11 C         121.6820  154.4247  145.1082 C.3     1  UNL1       -0.0181
     12 C         125.9766  154.4935  147.9915 C.3     1  UNL1       -0.0504
     13 C         125.9417  153.1776  147.2187 C.3     1  UNL1       -0.0504
     14 C         119.8177  153.8870  146.7582 C.3     1  UNL1       -0.0013
     15 C         123.1763  154.3820  144.8240 C.3     1  UNL1        0.0492
     16 C         121.3900  152.0796  146.0895 C.ar    1  UNL1        0.0478
     17 C         118.7942  153.5514  145.6679 C.3     1  UNL1       -0.0325
     18 C         121.5343  151.1356  147.1070 C.ar    1  UNL1       -0.0398
     19 C         121.5635  149.7799  146.7839 C.ar    1  UNL1       -0.0586
     20 C         121.2539  150.3753  144.5107 C.ar    1  UNL1        0.0279
     21 C         117.0289  155.2818  146.3522 C.3     1  UNL1        0.0021
     22 C         121.4324  149.3890  145.4599 C.ar    1  UNL1       -0.0436
     23 C         117.1859  156.1321  145.1407 C.ar    1  UNL1        0.0756
     24 C         118.1095  157.1322  144.9167 C.ar    1  UNL1        0.1353
     25 C         117.9577  157.7241  143.6294 C.ar    1  UNL1       -0.0124
     26 C         116.9199  157.1585  142.9196 C.ar    1  UNL1       -0.0203
     27 C         119.8256  158.5590  145.6324 C.3     1  UNL1        0.0788
     28 H         117.1904  153.3088  146.9745 H       1  UNL1        0.2017
     29 H         116.7578  153.4923  145.4029 H       1  UNL1        0.2017
     30 H         121.9217  155.0983  147.7656 H       1  UNL1        0.0302
     31 H         122.0817  153.4961  148.4356 H       1  UNL1        0.0302
     32 H         124.2209  154.5289  149.2411 H       1  UNL1        0.0293
     33 H         124.3881  155.9599  148.2001 H       1  UNL1        0.0293
     34 H         124.2972  152.2042  146.2131 H       1  UNL1        0.0293
     35 H         124.1959  152.1813  147.9839 H       1  UNL1        0.0293
     36 H         121.4024  155.4714  145.2917 H       1  UNL1        0.0296
     37 H         121.1397  154.1109  144.2098 H       1  UNL1        0.0296
     38 H         126.5258  154.3967  148.9337 H       1  UNL1        0.0266
     39 H         126.4801  155.2638  147.3962 H       1  UNL1        0.0266
     40 H         126.3679  153.3224  146.2190 H       1  UNL1        0.0266
     41 H         126.5252  152.3954  147.7144 H       1  UNL1        0.0266
     42 H         119.7385  154.9498  147.0143 H       1  UNL1        0.0326
     43 H         119.5596  153.3347  147.6722 H       1  UNL1        0.0326
     44 H         123.5217  153.3812  144.5493 H       1  UNL1        0.0560
     45 H         123.4014  155.0364  143.9752 H       1  UNL1        0.0560
     46 H         118.9582  154.1033  144.7397 H       1  UNL1        0.0814
     47 H         118.7842  152.4826  145.4402 H       1  UNL1        0.0814
     48 H         121.6364  151.4194  148.1487 H       1  UNL1        0.0636
     49 H         121.7008  149.0330  147.5624 H       1  UNL1        0.0619
     50 H         121.1474  150.1244  143.4584 H       1  UNL1        0.0829
     51 H         117.6224  155.6400  147.1985 H       1  UNL1        0.0873
     52 H         115.9828  155.2721  146.6799 H       1  UNL1        0.0873
     53 H         121.4712  148.3427  145.1762 H       1  UNL1        0.0633
     54 H         118.5644  158.5237  143.2213 H       1  UNL1        0.0659
     55 H         116.5842  157.4171  141.9230 H       1  UNL1        0.0694
     56 H         120.4667  158.7140  146.5055 H       1  UNL1        0.0660
     57 H         119.2096  159.4560  145.5053 H       1  UNL1        0.0660
     58 H         120.4733  158.3992  144.7642 H       1  UNL1        0.0660
@<TRIPOS>UNITY_ATOM_ATTR
5 1
charge 1
@<TRIPOS>BOND
     1     1    23   ar
     2     1    26   ar
     3     2     6    1
     4     2    15    1
     5     3    24    1
     6     3    27    1
     7     4    16   ar
     8     4    20   ar
     9     5    17    1
    10     5    21    1
    11     5    28    1
    12     5    29    1
    13     6     8    1
    14     6     9    1
    15     6    10    1
    16     7     8    1
    17     7    11    1
    18     7    14    1
    19     7    16    1
    20     8    30    1
    21     8    31    1
    22     9    12    1
    23     9    32    1
    24     9    33    1
    25    10    13    1
    26    10    34    1
    27    10    35    1
    28    11    15    1
    29    11    36    1
    30    11    37    1
    31    12    13    1
    32    12    38    1
    33    12    39    1
    34    13    40    1
    35    13    41    1
    36    14    17    1
    37    14    42    1
    38    14    43    1
    39    15    44    1
    40    15    45    1
    41    16    18   ar
    42    17    46    1
    43    17    47    1
    44    18    19   ar
    45    18    48    1
    46    19    22   ar
    47    19    49    1
    48    20    22   ar
    49    20    50    1
    50    21    23    1
    51    21    51    1
    52    21    52    1
    53    22    53    1
    54    23    24   ar
    55    24    25   ar
    56    25    26   ar
    57    25    54    1
    58    26    55    1
    59    27    56    1
    60    27    57    1
    61    27    58    1
@<TRIPOS>MOLECULE
66553195
 58 61 0 0 0
SMALL
GASTEIGER

@<TRIPOS>ATOM
      1 S         114.8448  152.9022  144.1294 S.2     1  UNL1       -0.0926
      2 O         123.9946  154.7233  145.6681 O.3     1  UNL1       -0.3733
      3 O         116.6322  151.3968  147.1993 O.3     1  UNL1       -0.4941
      4 N         121.1142  151.4531  145.0974 N.ar    1  UNL1       -0.2593
      5 N         118.5948  152.3813  145.3931 N.4     1  UNL1        0.2308
      6 C         123.8659  154.1663  146.9787 C.3     1  UNL1        0.0704
      7 C         121.3957  153.5455  146.3736 C.3     1  UNL1        0.0224
      8 C         122.3885  154.1612  147.4107 C.3     1  UNL1       -0.0124
      9 C         124.6991  155.0522  147.9210 C.3     1  UNL1       -0.0237
     10 C         124.6151  152.8347  147.1058 C.3     1  UNL1       -0.0237
     11 C         121.7350  154.1969  145.0035 C.3     1  UNL1       -0.0181
     12 C         126.1493  154.6383  147.6740 C.3     1  UNL1       -0.0504
     13 C         126.0904  153.2302  147.0880 C.3     1  UNL1       -0.0504
     14 C         119.9402  153.9364  146.8052 C.3     1  UNL1       -0.0013
     15 C         123.2150  154.0863  144.6663 C.3     1  UNL1        0.0492
     16 C         121.4618  152.0103  146.2945 C.ar    1  UNL1        0.0478
     17 C         118.8179  153.7954  145.7678 C.3     1  UNL1       -0.0325
     18 C         121.7429  151.2068  147.3985 C.ar    1  UNL1       -0.0398
     19 C         121.7949  149.8218  147.2452 C.ar    1  UNL1       -0.0586
     20 C         121.2338  150.1058  144.9623 C.ar    1  UNL1        0.0279
     21 C         117.4838  152.1180  144.4395 C.3     1  UNL1        0.0021
     22 C         121.5592  149.2585  146.0007 C.ar    1  UNL1       -0.0436
     23 C         116.1328  152.2595  145.0579 C.ar    1  UNL1        0.0756
     24 C         115.7206  151.9131  146.3312 C.ar    1  UNL1        0.1353
     25 C         114.3361  152.1827  146.5387 C.ar    1  UNL1       -0.0124
     26 C         113.7405  152.7204  145.4183 C.ar    1  UNL1       -0.0203
     27 C         116.0961  151.0351  148.4720 C.3     1  UNL1        0.0788
     28 H         118.4098  151.8162  146.2346 H       1  UNL1        0.2017
     29 H         119.4697  151.9902  144.9942 H       1  UNL1        0.2017
     30 H         122.1028  155.2166  147.5378 H       1  UNL1        0.0302
     31 H         122.2750  153.7163  148.4053 H       1  UNL1        0.0302
     32 H         124.4414  154.8573  148.9695 H       1  UNL1        0.0293
     33 H         124.5639  156.1216  147.7265 H       1  UNL1        0.0293
     34 H         124.4112  152.1214  146.3041 H       1  UNL1        0.0293
     35 H         124.3874  152.3525  148.0640 H       1  UNL1        0.0293
     36 H         121.4785  155.2642  145.0541 H       1  UNL1        0.0296
     37 H         121.1500  153.7725  144.1803 H       1  UNL1        0.0296
     38 H         126.7293  154.6676  148.6022 H       1  UNL1        0.0266
     39 H         126.6316  155.3200  146.9643 H       1  UNL1        0.0266
     40 H         126.4692  153.2401  146.0592 H       1  UNL1        0.0266
     41 H         126.7026  152.5233  147.6568 H       1  UNL1        0.0266
     42 H         119.9396  154.9950  147.0995 H       1  UNL1        0.0326
     43 H         119.6612  153.3796  147.7106 H       1  UNL1        0.0326
     44 H         123.5342  153.0495  144.5254 H       1  UNL1        0.0560
     45 H         123.4106  154.6075  143.7232 H       1  UNL1        0.0560
     46 H         117.8832  154.1715  146.1967 H       1  UNL1        0.0814
     47 H         119.0269  154.3571  144.8528 H       1  UNL1        0.0814
     48 H         121.9482  151.6204  148.3804 H       1  UNL1        0.0636
     49 H         122.0481  149.1871  148.0921 H       1  UNL1        0.0619
     50 H         121.0489  149.7136  143.9646 H       1  UNL1        0.0829
     51 H         117.6196  151.0854  144.0986 H       1  UNL1        0.0873
     52 H         117.6356  152.7823  143.5819 H       1  UNL1        0.0873
     53 H         121.6344  148.1867  145.8469 H       1  UNL1        0.0633
     54 H         113.7794  152.0001  147.4499 H       1  UNL1        0.0659
     55 H         112.7053  153.0142  145.2959 H       1  UNL1        0.0694
     56 H         116.9137  150.6240  149.0720 H       1  UNL1        0.0660
     57 H         115.3292  150.2599  148.3718 H       1  UNL1        0.0660
     58 H         115.7052  151.9132  148.9971 H       1  UNL1        0.0660
@<TRIPOS>UNITY_ATOM_ATTR
5 1
charge 1
@<TRIPOS>BOND
     1     1    23   ar
     2     1    26   ar
     3     2     6    1
     4     2    15    1
     5     3    24    1
     6     3    27    1
     7     4    16   ar
     8     4    20   ar
     9     5    17    1
    10     5    21    1
    11     5    28    1
    12     5    29    1
    13     6     8    1
    14     6     9    1
    15     6    10    1
    16     7     8    1
    17     7    11    1
    18     7    14    1
    19     7    16    1
    20     8    30    1
    21     8    31    1
    22     9    12    1
    23     9    32    1
    24     9    33    1
    25    10    13    1
    26    10    34    1
    27    10    35    1
    28    11    15    1
    29    11    36    1
    30    11    37    1
    31    12    13    1
    32    12    38    1
    33    12    39    1
    34    13    40    1
    35    13    41    1
    36    14    17    1
    37    14    42    1
    38    14    43    1
    39    15    44    1
    40    15    45    1
    41    16    18   ar
    42    17    46    1
    43    17    47    1
    44    18    19   ar
    45    18    48    1
    46    19    22   ar
    47    19    49    1
    48    20    22   ar
    49    20    50    1
    50    21    23    1
    51    21    51    1
    52    21    52    1
    53    22    53    1
    54    23    24   ar
    55    24    25   ar
    56    25    26   ar
    57    25    54    1
    58    26    55    1
    59    27    56    1
    60    27    57    1
    61    27    58    1
@<TRIPOS>MOLECULE
66553195
 58 61 0 0 0
SMALL
GASTEIGER

@<TRIPOS>ATOM
      1 S         117.4258  156.0882  149.2608 S.2     1  UNL1       -0.0926
      2 O         124.0506  154.6842  145.7650 O.3     1  UNL1       -0.3733
      3 O         119.3546  157.2738  146.1418 O.3     1  UNL1       -0.4941
      4 N         121.0777  151.5776  144.8268 N.ar    1  UNL1       -0.2593
      5 N         117.6313  153.8501  146.7273 N.4     1  UNL1        0.2308
      6 C         124.0213  153.8917  146.9555 C.3     1  UNL1        0.0704
      7 C         121.5135  153.3699  146.4400 C.3     1  UNL1        0.0224
      8 C         122.5841  153.7887  147.4935 C.3     1  UNL1       -0.0124
      9 C         124.9289  154.5987  147.9765 C.3     1  UNL1       -0.0237
     10 C         124.7702  152.5660  146.7789 C.3     1  UNL1       -0.0237
     11 C         121.7467  154.2694  145.1925 C.3     1  UNL1       -0.0181
     12 C         126.3519  154.2579  147.5372 C.3     1  UNL1       -0.0504
     13 C         126.2431  152.9688  146.7266 C.3     1  UNL1       -0.0504
     14 C         120.1024  153.6634  147.0456 C.3     1  UNL1       -0.0013
     15 C         123.1936  154.2294  144.7260 C.3     1  UNL1        0.0492
     16 C         121.5319  151.8825  146.0694 C.ar    1  UNL1        0.0478
     17 C         118.9308  153.4696  146.0783 C.3     1  UNL1       -0.0325
     18 C         121.8716  150.8784  146.9760 C.ar    1  UNL1       -0.0398
     19 C         121.8221  149.5451  146.5720 C.ar    1  UNL1       -0.0586
     20 C         121.0595  150.2767  144.4512 C.ar    1  UNL1        0.0279
     21 C         117.2176  155.2875  146.6131 C.3     1  UNL1        0.0021
     22 C         121.4191  149.2349  145.2821 C.ar    1  UNL1       -0.0436
     23 C         117.8769  156.1742  147.6094 C.ar    1  UNL1        0.0756
     24 C         118.8664  157.1127  147.3976 C.ar    1  UNL1        0.1353
     25 C         119.2500  157.7692  148.6033 C.ar    1  UNL1       -0.0124
     26 C         118.5414  157.3073  149.6917 C.ar    1  UNL1       -0.0203
     27 C         120.3919  158.2455  146.0247 C.3     1  UNL1        0.0788
     28 H         117.6260  153.5803  147.7190 H       1  UNL1        0.2017
     29 H         116.8933  153.2916  146.2826 H       1  UNL1        0.2017
     30 H         122.3112  154.7970  147.8413 H       1  UNL1        0.0302
     31 H         122.5485  153.1604  148.3901 H       1  UNL1        0.0302
     32 H         124.7581  154.2086  148.9876 H       1  UNL1        0.0293
     33 H         124.7795  155.6836  147.9959 H       1  UNL1        0.0293
     34 H         124.5019  152.0099  145.8778 H       1  UNL1        0.0293
     35 H         124.6100  151.9136  147.6458 H       1  UNL1        0.0293
     36 H         121.5058  155.3067  145.4616 H       1  UNL1        0.0296
     37 H         121.0960  154.0060  144.3520 H       1  UNL1        0.0296
     38 H         127.0136  154.1410  148.4015 H       1  UNL1        0.0266
     39 H         126.7658  155.0585  146.9134 H       1  UNL1        0.0266
     40 H         126.5509  153.1544  145.6909 H       1  UNL1        0.0266
     41 H         126.8883  152.1795  147.1248 H       1  UNL1        0.0266
     42 H         120.1031  154.6911  147.4141 H       1  UNL1        0.0326
     43 H         119.9414  153.0301  147.9292 H       1  UNL1        0.0326
     44 H         123.4939  153.2367  144.3782 H       1  UNL1        0.0560
     45 H         123.3201  154.9127  143.8796 H       1  UNL1        0.0560
     46 H         119.0175  154.0545  145.1594 H       1  UNL1        0.0814
     47 H         118.8114  152.4151  145.8158 H       1  UNL1        0.0814
     48 H         122.1845  151.0958  147.9912 H       1  UNL1        0.0636
     49 H         122.1078  148.7528  147.2602 H       1  UNL1        0.0619
     50 H         120.7366  150.0894  143.4303 H       1  UNL1        0.0829
     51 H         116.1315  155.2956  146.7641 H       1  UNL1        0.0873
     52 H         117.3987  155.6015  145.5798 H       1  UNL1        0.0873
     53 H         121.3882  148.2077  144.9347 H       1  UNL1        0.0633
     54 H         120.0042  158.5417  148.6949 H       1  UNL1        0.0659
     55 H         118.6281  157.6314  150.7215 H       1  UNL1        0.0694
     56 H         120.6955  158.2843  144.9743 H       1  UNL1        0.0660
     57 H         121.2680  157.9571  146.6158 H       1  UNL1        0.0660
     58 H         120.0346  159.2409  146.3088 H       1  UNL1        0.0660
@<TRIPOS>UNITY_ATOM_ATTR
5 1
charge 1
@<TRIPOS>BOND
     1     1    23   ar
     2     1    26   ar
     3     2     6    1
     4     2    15    1
     5     3    24    1
     6     3    27    1
     7     4    16   ar
     8     4    20   ar
     9     5    17    1
    10     5    21    1
    11     5    28    1
    12     5    29    1
    13     6     8    1
    14     6     9    1
    15     6    10    1
    16     7     8    1
    17     7    11    1
    18     7    14    1
    19     7    16    1
    20     8    30    1
    21     8    31    1
    22     9    12    1
    23     9    32    1
    24     9    33    1
    25    10    13    1
    26    10    34    1
    27    10    35    1
    28    11    15    1
    29    11    36    1
    30    11    37    1
    31    12    13    1
    32    12    38    1
    33    12    39    1
    34    13    40    1
    35    13    41    1
    36    14    17    1
    37    14    42    1
    38    14    43    1
    39    15    44    1
    40    15    45    1
    41    16    18   ar
    42    17    46    1
    43    17    47    1
    44    18    19   ar
    45    18    48    1
    46    19    22   ar
    47    19    49    1
    48    20    22   ar
    49    20    50    1
    50    21    23    1
    51    21    51    1
    52    21    52    1
    53    22    53    1
    54    23    24   ar
    55    24    25   ar
    56    25    26   ar
    57    25    54    1
    58    26    55    1
    59    27    56    1
    60    27    57    1
    61    27    58    1
@<TRIPOS>MOLECULE
66553195
 58 61 0 0 0
SMALL
GASTEIGER

@<TRIPOS>ATOM
      1 S         116.6259  158.0765  145.4601 S.2     1  UNL1       -0.0926
      2 O         124.1855  154.5747  145.6650 O.3     1  UNL1       -0.3733
      3 O         120.1836  158.8034  146.7496 O.3     1  UNL1       -0.4941
      4 N         121.1652  151.6414  144.9608 N.ar    1  UNL1       -0.2593
      5 N         118.3503  155.6815  147.3624 N.4     1  UNL1        0.2308
      6 C         124.0405  153.9494  146.9443 C.3     1  UNL1        0.0704
      7 C         121.5189  153.6106  146.3920 C.3     1  UNL1        0.0224
      8 C         122.5827  154.0677  147.4298 C.3     1  UNL1       -0.0124
      9 C         124.9875  154.6879  147.9060 C.3     1  UNL1       -0.0237
     10 C         124.6509  152.5431  146.9694 C.3     1  UNL1       -0.0237
     11 C         121.8735  154.3132  145.0499 C.3     1  UNL1       -0.0181
     12 C         126.3791  154.1495  147.5778 C.3     1  UNL1       -0.0504
     13 C         126.1588  152.7850  146.9303 C.3     1  UNL1       -0.0504
     14 C         120.0734  154.0045  146.8450 C.3     1  UNL1       -0.0013
     15 C         123.3219  154.0676  144.6512 C.3     1  UNL1        0.0492
     16 C         121.4575  152.0823  146.2089 C.ar    1  UNL1        0.0478
     17 C         119.7893  155.4984  146.9792 C.3     1  UNL1       -0.0325
     18 C         121.5832  151.1902  147.2758 C.ar    1  UNL1       -0.0398
     19 C         121.4710  149.8208  147.0399 C.ar    1  UNL1       -0.0586
     20 C         121.0698  150.3077  144.7550 C.ar    1  UNL1        0.0279
     21 C         117.9652  157.0944  147.6831 C.3     1  UNL1        0.0021
     22 C         121.2164  149.3667  145.7545 C.ar    1  UNL1       -0.0436
     23 C         117.9900  157.9856  146.4910 C.ar    1  UNL1        0.0756
     24 C         119.0177  158.7966  146.0542 C.ar    1  UNL1        0.1353
     25 C         118.6706  159.5119  144.8715 C.ar    1  UNL1       -0.0124
     26 C         117.3935  159.2157  144.4451 C.ar    1  UNL1       -0.0203
     27 C         121.1650  159.7145  146.2587 C.3     1  UNL1        0.0788
     28 H         118.1258  155.0959  148.1747 H       1  UNL1        0.2017
     29 H         117.7483  155.3589  146.5930 H       1  UNL1        0.2017
     30 H         122.4132  155.1345  147.6278 H       1  UNL1        0.0302
     31 H         122.4552  153.5703  148.3973 H       1  UNL1        0.0302
     32 H         124.7453  154.4528  148.9499 H       1  UNL1        0.0293
     33 H         124.9544  155.7755  147.7812 H       1  UNL1        0.0293
     34 H         124.3556  151.9041  146.1343 H       1  UNL1        0.0293
     35 H         124.3955  152.0283  147.9035 H       1  UNL1        0.0293
     36 H         121.7637  155.3978  145.1674 H       1  UNL1        0.0296
     37 H         121.1991  154.0179  144.2380 H       1  UNL1        0.0296
     38 H         126.9961  154.0771  148.4793 H       1  UNL1        0.0266
     39 H         126.8968  154.8163  146.8788 H       1  UNL1        0.0266
     40 H         126.5148  152.8043  145.8935 H       1  UNL1        0.0266
     41 H         126.7052  151.9919  147.4504 H       1  UNL1        0.0266
     42 H         119.8551  153.5219  147.8085 H       1  UNL1        0.0326
     43 H         119.3492  153.5855  146.1308 H       1  UNL1        0.0326
     44 H         123.5370  153.0157  144.4452 H       1  UNL1        0.0560
     45 H         123.5432  154.6212  143.7326 H       1  UNL1        0.0560
     46 H         120.3894  155.9587  147.7681 H       1  UNL1        0.0814
     47 H         119.9283  156.0226  146.0325 H       1  UNL1        0.0814
     48 H         121.7707  151.5249  148.2895 H       1  UNL1        0.0636
     49 H         121.5849  149.1113  147.8557 H       1  UNL1        0.0619
     50 H         120.8644  150.0082  143.7307 H       1  UNL1        0.0829
     51 H         118.6397  157.4413  148.4736 H       1  UNL1        0.0873
     52 H         116.9596  157.0392  148.1152 H       1  UNL1        0.0873
     53 H         121.1319  148.3074  145.5379 H       1  UNL1        0.0633
     54 H         119.3053  160.2111  144.3403 H       1  UNL1        0.0659
     55 H         116.8766  159.6151  143.5812 H       1  UNL1        0.0694
     56 H         122.0406  159.6442  146.9112 H       1  UNL1        0.0660
     57 H         120.7998  160.7463  146.2957 H       1  UNL1        0.0660
     58 H         121.4800  159.4433  145.2454 H       1  UNL1        0.0660
@<TRIPOS>UNITY_ATOM_ATTR
5 1
charge 1
@<TRIPOS>BOND
     1     1    23   ar
     2     1    26   ar
     3     2     6    1
     4     2    15    1
     5     3    24    1
     6     3    27    1
     7     4    16   ar
     8     4    20   ar
     9     5    17    1
    10     5    21    1
    11     5    28    1
    12     5    29    1
    13     6     8    1
    14     6     9    1
    15     6    10    1
    16     7     8    1
    17     7    11    1
    18     7    14    1
    19     7    16    1
    20     8    30    1
    21     8    31    1
    22     9    12    1
    23     9    32    1
    24     9    33    1
    25    10    13    1
    26    10    34    1
    27    10    35    1
    28    11    15    1
    29    11    36    1
    30    11    37    1
    31    12    13    1
    32    12    38    1
    33    12    39    1
    34    13    40    1
    35    13    41    1
    36    14    17    1
    37    14    42    1
    38    14    43    1
    39    15    44    1
    40    15    45    1
    41    16    18   ar
    42    17    46    1
    43    17    47    1
    44    18    19   ar
    45    18    48    1
    46    19    22   ar
    47    19    49    1
    48    20    22   ar
    49    20    50    1
    50    21    23    1
    51    21    51    1
    52    21    52    1
    53    22    53    1
    54    23    24   ar
    55    24    25   ar
    56    25    26   ar
    57    25    54    1
    58    26    55    1
    59    27    56    1
    60    27    57    1
    61    27    58    1
@<TRIPOS>MOLECULE
66553195
 58 61 0 0 0
SMALL
GASTEIGER

@<TRIPOS>ATOM
      1 S         116.4500  155.6941  146.4199 S.2     1  UNL1       -0.0926
      2 O         124.0790  154.6886  145.7612 O.3     1  UNL1       -0.3733
      3 O         116.8310  152.1255  145.0164 O.3     1  UNL1       -0.4941
      4 N         120.7172  151.5705  145.0826 N.ar    1  UNL1       -0.2593
      5 N         118.1588  153.7557  148.4563 N.4     1  UNL1        0.2308
      6 C         123.9875  154.0346  147.0280 C.3     1  UNL1        0.0704
      7 C         121.4974  153.4597  146.4211 C.3     1  UNL1        0.0224
      8 C         122.5184  153.9415  147.4941 C.3     1  UNL1       -0.0124
      9 C         124.8093  154.8805  148.0183 C.3     1  UNL1       -0.0237
     10 C         124.7949  152.7312  147.0419 C.3     1  UNL1       -0.0237
     11 C         121.8229  154.2182  145.1012 C.3     1  UNL1       -0.0181
     12 C         126.2694  154.5463  147.7121 C.3     1  UNL1       -0.0504
     13 C         126.2513  153.1910  147.0106 C.3     1  UNL1       -0.0504
     14 C         120.0471  153.8959  146.8307 C.3     1  UNL1       -0.0013
     15 C         123.2894  154.1080  144.7306 C.3     1  UNL1        0.0492
     16 C         121.4496  151.9482  146.1605 C.ar    1  UNL1        0.0478
     17 C         119.4654  153.1560  148.0323 C.3     1  UNL1       -0.0325
     18 C         121.9961  150.9930  147.0158 C.ar    1  UNL1       -0.0398
     19 C         121.8541  149.6379  146.7155 C.ar    1  UNL1       -0.0586
     20 C         120.6058  150.2522  144.8007 C.ar    1  UNL1        0.0279
     21 C         116.9352  153.2891  147.7220 C.3     1  UNL1        0.0021
     22 C         121.1540  149.2564  145.5817 C.ar    1  UNL1       -0.0436
     23 C         116.7039  153.9988  146.4356 C.ar    1  UNL1        0.0756
     24 C         116.6492  153.4612  145.1661 C.ar    1  UNL1        0.1353
     25 C         116.4073  154.4547  144.1733 C.ar    1  UNL1       -0.0124
     26 C         116.2803  155.7133  144.7206 C.ar    1  UNL1       -0.0203
     27 C         116.8327  151.6718  143.6659 C.3     1  UNL1        0.0788
     28 H         118.1930  154.7820  148.3989 H       1  UNL1        0.2017
     29 H         118.0128  153.5339  149.4476 H       1  UNL1        0.2017
     30 H         122.2204  154.9642  147.7710 H       1  UNL1        0.0302
     31 H         122.4455  153.3636  148.4220 H       1  UNL1        0.0302
     32 H         124.5831  154.5978  149.0540 H       1  UNL1        0.0293
     33 H         124.6282  155.9551  147.9078 H       1  UNL1        0.0293
     34 H         124.5940  152.0661  146.1991 H       1  UNL1        0.0293
     35 H         124.6222  152.1772  147.9719 H       1  UNL1        0.0293
     36 H         121.5931  155.2836  145.2442 H       1  UNL1        0.0296
     37 H         121.2030  153.8788  144.2633 H       1  UNL1        0.0296
     38 H         126.8657  154.5200  148.6299 H       1  UNL1        0.0266
     39 H         126.7119  155.3036  147.0550 H       1  UNL1        0.0266
     40 H         126.5929  153.3037  145.9750 H       1  UNL1        0.0266
     41 H         126.9125  152.4677  147.4983 H       1  UNL1        0.0266
     42 H         119.3854  153.7496  145.9702 H       1  UNL1        0.0326
     43 H         120.0396  154.9756  147.0331 H       1  UNL1        0.0326
     44 H         123.5955  153.0767  144.5326 H       1  UNL1        0.0560
     45 H         123.4789  154.6795  143.8161 H       1  UNL1        0.0560
     46 H         119.2926  152.0919  147.8488 H       1  UNL1        0.0814
     47 H         120.1228  153.2581  148.9010 H       1  UNL1        0.0814
     48 H         122.5379  151.2559  147.9155 H       1  UNL1        0.0636
     49 H         122.2985  148.8832  147.3604 H       1  UNL1        0.0619
     50 H         120.0464  150.0136  143.9004 H       1  UNL1        0.0829
     51 H         116.0943  153.4769  148.4003 H       1  UNL1        0.0873
     52 H         117.0188  152.2038  147.6050 H       1  UNL1        0.0873
     53 H         121.0416  148.2115  145.3135 H       1  UNL1        0.0633
     54 H         116.3238  154.2802  143.1073 H       1  UNL1        0.0659
     55 H         116.0904  156.6432  144.1988 H       1  UNL1        0.0694
     56 H         117.0046  150.5912  143.6772 H       1  UNL1        0.0660
     57 H         117.6450  152.1343  143.0950 H       1  UNL1        0.0660
     58 H         115.8634  151.8514  143.1889 H       1  UNL1        0.0660
@<TRIPOS>UNITY_ATOM_ATTR
5 1
charge 1
@<TRIPOS>BOND
     1     1    23   ar
     2     1    26   ar
     3     2     6    1
     4     2    15    1
     5     3    24    1
     6     3    27    1
     7     4    16   ar
     8     4    20   ar
     9     5    17    1
    10     5    21    1
    11     5    28    1
    12     5    29    1
    13     6     8    1
    14     6     9    1
    15     6    10    1
    16     7     8    1
    17     7    11    1
    18     7    14    1
    19     7    16    1
    20     8    30    1
    21     8    31    1
    22     9    12    1
    23     9    32    1
    24     9    33    1
    25    10    13    1
    26    10    34    1
    27    10    35    1
    28    11    15    1
    29    11    36    1
    30    11    37    1
    31    12    13    1
    32    12    38    1
    33    12    39    1
    34    13    40    1
    35    13    41    1
    36    14    17    1
    37    14    42    1
    38    14    43    1
    39    15    44    1
    40    15    45    1
    41    16    18   ar
    42    17    46    1
    43    17    47    1
    44    18    19   ar
    45    18    48    1
    46    19    22   ar
    47    19    49    1
    48    20    22   ar
    49    20    50    1
    50    21    23    1
    51    21    51    1
    52    21    52    1
    53    22    53    1
    54    23    24   ar
    55    24    25   ar
    56    25    26   ar
    57    25    54    1
    58    26    55    1
    59    27    56    1
    60    27    57    1
    61    27    58    1
@<TRIPOS>MOLECULE
66553195
 58 61 0 0 0
SMALL
GASTEIGER

@<TRIPOS>ATOM
      1 S         116.6906  150.6000  149.1650 S.2     1  UNL1       -0.0926
      2 O         123.7920  155.0961  145.8085 O.3     1  UNL1       -0.3733
      3 O         118.8145  151.5133  152.2493 O.3     1  UNL1       -0.4941
      4 N         121.6981  151.1453  146.6443 N.ar    1  UNL1       -0.2593
      5 N         119.6147  151.5570  148.2043 N.4     1  UNL1        0.2308
      6 C         123.8492  154.0770  146.8092 C.3     1  UNL1        0.0704
      7 C         121.3370  153.5678  146.3384 C.3     1  UNL1        0.0224
      8 C         122.4499  153.8270  147.3971 C.3     1  UNL1       -0.0124
      9 C         124.8087  154.5804  147.9003 C.3     1  UNL1       -0.0237
     10 C         124.5993  152.8316  146.3204 C.3     1  UNL1       -0.0237
     11 C         121.4670  154.7030  145.2800 C.3     1  UNL1       -0.0181
     12 C         126.2051  154.3728  147.3177 C.3     1  UNL1       -0.0504
     13 C         126.0657  153.2596  146.2826 C.3     1  UNL1       -0.0504
     14 C         119.9151  153.7099  146.9901 C.3     1  UNL1       -0.0013
     15 C         122.8850  154.8476  144.7438 C.3     1  UNL1        0.0492
     16 C         121.4587  152.1500  145.7481 C.ar    1  UNL1        0.0478
     17 C         119.6571  153.0301  148.3415 C.3     1  UNL1       -0.0325
     18 C         121.2925  151.8697  144.3920 C.ar    1  UNL1       -0.0398
     19 C         121.4659  150.5648  143.9309 C.ar    1  UNL1       -0.0586
     20 C         121.9180  149.8943  146.1544 C.ar    1  UNL1        0.0279
     21 C         119.4532  150.7802  149.4639 C.3     1  UNL1        0.0021
     22 C         121.8040  149.5593  144.8219 C.ar    1  UNL1       -0.0436
     23 C         118.1044  150.9176  150.0833 C.ar    1  UNL1        0.0756
     24 C         117.8003  151.2517  151.3869 C.ar    1  UNL1        0.1353
     25 C         116.3947  151.2797  151.6215 C.ar    1  UNL1       -0.0124
     26 C         115.6755  150.9472  150.4937 C.ar    1  UNL1       -0.0203
     27 C         118.4218  151.6183  153.6158 C.3     1  UNL1        0.0788
     28 H         120.5049  151.2511  147.7649 H       1  UNL1        0.2017
     29 H         118.8822  151.2731  147.5446 H       1  UNL1        0.2017
     30 H         122.1639  154.7335  147.9512 H       1  UNL1        0.0302
     31 H         122.5019  153.0224  148.1406 H       1  UNL1        0.0302
     32 H         124.7060  153.9859  148.8167 H       1  UNL1        0.0293
     33 H         124.6477  155.6340  148.1529 H       1  UNL1        0.0293
     34 H         124.2915  152.4737  145.3356 H       1  UNL1        0.0293
     35 H         124.4848  152.0072  147.0349 H       1  UNL1        0.0293
     36 H         121.2121  155.6572  145.7630 H       1  UNL1        0.0296
     37 H         120.7529  154.5866  144.4580 H       1  UNL1        0.0296
     38 H         126.9258  154.1142  148.1001 H       1  UNL1        0.0266
     39 H         126.5611  155.2897  146.8341 H       1  UNL1        0.0266
     40 H         126.3265  153.6415  145.2888 H       1  UNL1        0.0266
     41 H         126.7320  152.4177  146.4960 H       1  UNL1        0.0266
     42 H         119.1487  153.3870  146.2717 H       1  UNL1        0.0326
     43 H         119.7250  154.7785  147.1625 H       1  UNL1        0.0326
     44 H         123.2074  153.9809  144.1608 H       1  UNL1        0.0560
     45 H         122.9302  155.7108  144.0712 H       1  UNL1        0.0560
     46 H         120.4171  153.2826  149.0862 H       1  UNL1        0.0814
     47 H         118.6802  153.3449  148.7233 H       1  UNL1        0.0814
     48 H         121.0545  152.6348  143.6607 H       1  UNL1        0.0636
     49 H         121.3636  150.3422  142.8704 H       1  UNL1        0.0619
     50 H         122.1954  149.1418  146.8893 H       1  UNL1        0.0829
     51 H         120.2577  151.0972  150.1358 H       1  UNL1        0.0873
     52 H         119.6365  149.7326  149.1993 H       1  UNL1        0.0873
     53 H         121.9807  148.5443  144.4809 H       1  UNL1        0.0633
     54 H         115.9121  151.5240  152.5602 H       1  UNL1        0.0659
     55 H         114.5991  150.8850  150.3926 H       1  UNL1        0.0694
     56 H         117.7899  152.4980  153.7754 H       1  UNL1        0.0660
     57 H         119.3288  151.7431  154.2150 H       1  UNL1        0.0660
     58 H         117.9193  150.7058  153.9552 H       1  UNL1        0.0660
@<TRIPOS>UNITY_ATOM_ATTR
5 1
charge 1
@<TRIPOS>BOND
     1     1    23   ar
     2     1    26   ar
     3     2     6    1
     4     2    15    1
     5     3    24    1
     6     3    27    1
     7     4    16   ar
     8     4    20   ar
     9     5    17    1
    10     5    21    1
    11     5    28    1
    12     5    29    1
    13     6     8    1
    14     6     9    1
    15     6    10    1
    16     7     8    1
    17     7    11    1
    18     7    14    1
    19     7    16    1
    20     8    30    1
    21     8    31    1
    22     9    12    1
    23     9    32    1
    24     9    33    1
    25    10    13    1
    26    10    34    1
    27    10    35    1
    28    11    15    1
    29    11    36    1
    30    11    37    1
    31    12    13    1
    32    12    38    1
    33    12    39    1
    34    13    40    1
    35    13    41    1
    36    14    17    1
    37    14    42    1
    38    14    43    1
    39    15    44    1
    40    15    45    1
    41    16    18   ar
    42    17    46    1
    43    17    47    1
    44    18    19   ar
    45    18    48    1
    46    19    22   ar
    47    19    49    1
    48    20    22   ar
    49    20    50    1
    50    21    23    1
    51    21    51    1
    52    21    52    1
    53    22    53    1
    54    23    24   ar
    55    24    25   ar
    56    25    26   ar
    57    25    54    1
    58    26    55    1
    59    27    56    1
    60    27    57    1
    61    27    58    1
@<TRIPOS>MOLECULE
66553195
 58 61 0 0 0
SMALL
GASTEIGER

@<TRIPOS>ATOM
      1 S         119.9306  156.9406  149.7701 S.2     1  UNL1       -0.0926
      2 O         123.9383  154.9573  145.6930 O.3     1  UNL1       -0.3733
      3 O         118.8522  153.6592  151.4824 O.3     1  UNL1       -0.4941
      4 N         121.6483  151.2844  147.1151 N.ar    1  UNL1       -0.2593
      5 N         118.2330  153.5947  148.5760 N.4     1  UNL1        0.2308
      6 C         123.8830  154.1490  146.8720 C.3     1  UNL1        0.0704
      7 C         121.4163  153.5701  146.2751 C.3     1  UNL1        0.0224
      8 C         122.4328  154.0302  147.3646 C.3     1  UNL1       -0.0124
      9 C         124.7535  154.8448  147.9318 C.3     1  UNL1       -0.0237
     10 C         124.6391  152.8254  146.7023 C.3     1  UNL1       -0.0237
     11 C         121.6616  154.4717  145.0339 C.3     1  UNL1       -0.0181
     12 C         126.1913  154.5066  147.5428 C.3     1  UNL1       -0.0504
     13 C         126.1127  153.2271  146.7141 C.3     1  UNL1       -0.0504
     14 C         119.9525  153.8423  146.7666 C.3     1  UNL1       -0.0013
     15 C         123.1261  154.5064  144.6174 C.3     1  UNL1        0.0492
     16 C         121.5387  152.0654  146.0076 C.ar    1  UNL1        0.0478
     17 C         119.5636  153.1298  148.0649 C.3     1  UNL1       -0.0325
     18 C         121.4803  151.5001  144.7344 C.ar    1  UNL1       -0.0398
     19 C         121.5927  150.1174  144.5925 C.ar    1  UNL1       -0.0586
     20 C         121.7757  149.9463  146.9479 C.ar    1  UNL1        0.0279
     21 C         118.0866  155.0304  148.9734 C.3     1  UNL1        0.0021
     22 C         121.7520  149.3227  145.7173 C.ar    1  UNL1       -0.0436
     23 C         119.0754  155.4747  149.9948 C.ar    1  UNL1        0.0756
     24 C         119.4313  154.8499  151.1739 C.ar    1  UNL1        0.1353
     25 C         120.4165  155.5866  151.8941 C.ar    1  UNL1       -0.0124
     26 C         120.7751  156.7460  151.2407 C.ar    1  UNL1       -0.0203
     27 C         119.2822  153.0995  152.7234 C.3     1  UNL1        0.0788
     28 H         118.0508  153.0568  149.4367 H       1  UNL1        0.2017
     29 H         117.4915  153.3404  147.9150 H       1  UNL1        0.2017
     30 H         122.1191  155.0295  147.7008 H       1  UNL1        0.0302
     31 H         122.4022  153.3919  148.2553 H       1  UNL1        0.0302
     32 H         124.5464  154.4447  148.9323 H       1  UNL1        0.0293
     33 H         124.6038  155.9295  147.9576 H       1  UNL1        0.0293
     34 H         124.4080  152.2847  145.7820 H       1  UNL1        0.0293
     35 H         124.4419  152.1569  147.5495 H       1  UNL1        0.0293
     36 H         121.3761  155.5013  145.2933 H       1  UNL1        0.0296
     37 H         121.0273  154.1908  144.1865 H       1  UNL1        0.0296
     38 H         126.8195  154.3781  148.4302 H       1  UNL1        0.0266
     39 H         126.6298  155.3135  146.9448 H       1  UNL1        0.0266
     40 H         126.4620  153.4238  145.6938 H       1  UNL1        0.0266
     41 H         126.7404  152.4320  147.1286 H       1  UNL1        0.0266
     42 H         119.2402  153.5546  145.9810 H       1  UNL1        0.0326
     43 H         119.8401  154.9246  146.8965 H       1  UNL1        0.0326
     44 H         123.4813  153.5410  144.2473 H       1  UNL1        0.0560
     45 H         123.2504  155.2208  143.7967 H       1  UNL1        0.0560
     46 H         119.4291  152.0569  147.9066 H       1  UNL1        0.0814
     47 H         120.2856  153.2770  148.8700 H       1  UNL1        0.0814
     48 H         121.3633  152.0953  143.8359 H       1  UNL1        0.0636
     49 H         121.5680  149.6648  143.6038 H       1  UNL1        0.0619
     50 H         121.9031  149.3707  147.8609 H       1  UNL1        0.0829
     51 H         117.0735  155.1205  149.3821 H       1  UNL1        0.0873
     52 H         118.1174  155.6222  148.0536 H       1  UNL1        0.0873
     53 H         121.8589  148.2465  145.6340 H       1  UNL1        0.0633
     54 H         120.8576  155.3049  152.8427 H       1  UNL1        0.0659
     55 H         121.4947  157.4899  151.5597 H       1  UNL1        0.0694
     56 H         118.7476  152.1556  152.8658 H       1  UNL1        0.0660
     57 H         119.0317  153.7584  153.5615 H       1  UNL1        0.0660
     58 H         120.3545  152.8767  152.7025 H       1  UNL1        0.0660
@<TRIPOS>UNITY_ATOM_ATTR
5 1
charge 1
@<TRIPOS>BOND
     1     1    23   ar
     2     1    26   ar
     3     2     6    1
     4     2    15    1
     5     3    24    1
     6     3    27    1
     7     4    16   ar
     8     4    20   ar
     9     5    17    1
    10     5    21    1
    11     5    28    1
    12     5    29    1
    13     6     8    1
    14     6     9    1
    15     6    10    1
    16     7     8    1
    17     7    11    1
    18     7    14    1
    19     7    16    1
    20     8    30    1
    21     8    31    1
    22     9    12    1
    23     9    32    1
    24     9    33    1
    25    10    13    1
    26    10    34    1
    27    10    35    1
    28    11    15    1
    29    11    36    1
    30    11    37    1
    31    12    13    1
    32    12    38    1
    33    12    39    1
    34    13    40    1
    35    13    41    1
    36    14    17    1
    37    14    42    1
    38    14    43    1
    39    15    44    1
    40    15    45    1
    41    16    18   ar
    42    17    46    1
    43    17    47    1
    44    18    19   ar
    45    18    48    1
    46    19    22   ar
    47    19    49    1
    48    20    22   ar
    49    20    50    1
    50    21    23    1
    51    21    51    1
    52    21    52    1
    53    22    53    1
    54    23    24   ar
    55    24    25   ar
    56    25    26   ar
    57    25    54    1
    58    26    55    1
    59    27    56    1
    60    27    57    1
    61    27    58    1
@<TRIPOS>MOLECULE
66553195
 58 61 0 0 0
SMALL
GASTEIGER

@<TRIPOS>ATOM
      1 S         118.5016  157.1648  150.6036 S.2     1  UNL1       -0.0926
      2 O         124.0856  154.8333  145.8440 O.3     1  UNL1       -0.3733
      3 O         119.5827  159.4462  147.6913 O.3     1  UNL1       -0.4941
      4 N         121.1657  151.9672  144.7491 N.ar    1  UNL1       -0.2593
      5 N         118.2583  155.6996  147.6499 N.4     1  UNL1        0.2308
      6 C         123.9204  154.0615  147.0378 C.3     1  UNL1        0.0704
      7 C         121.4135  153.7765  146.3995 C.3     1  UNL1        0.0224
      8 C         122.4540  154.1174  147.5044 C.3     1  UNL1       -0.0124
      9 C         124.8439  154.6842  148.0990 C.3     1  UNL1       -0.0237
     10 C         124.5352  152.6625  146.9110 C.3     1  UNL1       -0.0237
     11 C         121.7864  154.6282  145.1535 C.3     1  UNL1       -0.0181
     12 C         126.2439  154.1890  147.7410 C.3     1  UNL1       -0.0504
     13 C         126.0427  152.9078  146.9362 C.3     1  UNL1       -0.0504
     14 C         119.9618  154.1098  146.8771 C.3     1  UNL1       -0.0013
     15 C         123.2461  154.4445  144.7601 C.3     1  UNL1        0.0492
     16 C         121.3723  152.2763  146.0522 C.ar    1  UNL1        0.0478
     17 C         119.6333  155.5899  147.0614 C.3     1  UNL1       -0.0325
     18 C         121.4380  151.2785  147.0273 C.ar    1  UNL1       -0.0398
     19 C         121.3541  149.9407  146.6446 C.ar    1  UNL1       -0.0586
     20 C         121.0984  150.6614  144.4008 C.ar    1  UNL1        0.0279
     21 C         117.8007  157.1023  147.9152 C.3     1  UNL1        0.0021
     22 C         121.1891  149.6221  145.3051 C.ar    1  UNL1       -0.0436
     23 C         118.5779  157.7657  148.9997 C.ar    1  UNL1        0.0756
     24 C         119.4100  158.8613  148.9032 C.ar    1  UNL1        0.1353
     25 C         119.9995  159.2003  150.1557 C.ar    1  UNL1       -0.0124
     26 C         119.5891  158.3560  151.1655 C.ar    1  UNL1       -0.0203
     27 C         120.2999  160.6784  147.7217 C.3     1  UNL1        0.0788
     28 H         118.2185  155.1915  148.5427 H       1  UNL1        0.2017
     29 H         117.5793  155.2498  147.0240 H       1  UNL1        0.2017
     30 H         122.2723  155.1520  147.8236 H       1  UNL1        0.0302
     31 H         122.3129  153.5095  148.4048 H       1  UNL1        0.0302
     32 H         124.5802  154.3291  149.1031 H       1  UNL1        0.0293
     33 H         124.8094  155.7789  148.1008 H       1  UNL1        0.0293
     34 H         124.2612  152.1260  146.0001 H       1  UNL1        0.0293
     35 H         124.2596  152.0409  147.7716 H       1  UNL1        0.0293
     36 H         121.6585  155.6915  145.3909 H       1  UNL1        0.0296
     37 H         121.1318  154.4182  144.2997 H       1  UNL1        0.0296
     38 H         126.8419  154.0141  148.6412 H       1  UNL1        0.0266
     39 H         126.7738  154.9326  147.1348 H       1  UNL1        0.0266
     40 H         126.4233  153.0458  145.9174 H       1  UNL1        0.0266
     41 H         126.5786  152.0603  147.3751 H       1  UNL1        0.0266
     42 H         119.7710  153.5833  147.8232 H       1  UNL1        0.0326
     43 H         119.2397  153.6980  146.1566 H       1  UNL1        0.0326
     44 H         123.4773  153.4268  144.4345 H       1  UNL1        0.0560
     45 H         123.4795  155.1053  143.9186 H       1  UNL1        0.0560
     46 H         120.3235  156.0770  147.7525 H       1  UNL1        0.0814
     47 H         119.6064  156.1265  146.1090 H       1  UNL1        0.0814
     48 H         121.5568  151.5079  148.0801 H       1  UNL1        0.0636
     49 H         121.4214  149.1507  147.3886 H       1  UNL1        0.0619
     50 H         120.9647  150.4690  143.3396 H       1  UNL1        0.0829
     51 H         116.7429  157.0280  148.1915 H       1  UNL1        0.0873
     52 H         117.8582  157.6401  146.9632 H       1  UNL1        0.0873
     53 H         121.1302  148.5907  144.9748 H       1  UNL1        0.0633
     54 H         120.6917  160.0146  150.3331 H       1  UNL1        0.0659
     55 H         119.8772  158.3874  152.2090 H       1  UNL1        0.0694
     56 H         120.3038  161.0875  146.7069 H       1  UNL1        0.0660
     57 H         121.3402  160.5181  148.0235 H       1  UNL1        0.0660
     58 H         119.8083  161.4075  148.3750 H       1  UNL1        0.0660
@<TRIPOS>UNITY_ATOM_ATTR
5 1
charge 1
@<TRIPOS>BOND
     1     1    23   ar
     2     1    26   ar
     3     2     6    1
     4     2    15    1
     5     3    24    1
     6     3    27    1
     7     4    16   ar
     8     4    20   ar
     9     5    17    1
    10     5    21    1
    11     5    28    1
    12     5    29    1
    13     6     8    1
    14     6     9    1
    15     6    10    1
    16     7     8    1
    17     7    11    1
    18     7    14    1
    19     7    16    1
    20     8    30    1
    21     8    31    1
    22     9    12    1
    23     9    32    1
    24     9    33    1
    25    10    13    1
    26    10    34    1
    27    10    35    1
    28    11    15    1
    29    11    36    1
    30    11    37    1
    31    12    13    1
    32    12    38    1
    33    12    39    1
    34    13    40    1
    35    13    41    1
    36    14    17    1
    37    14    42    1
    38    14    43    1
    39    15    44    1
    40    15    45    1
    41    16    18   ar
    42    17    46    1
    43    17    47    1
    44    18    19   ar
    45    18    48    1
    46    19    22   ar
    47    19    49    1
    48    20    22   ar
    49    20    50    1
    50    21    23    1
    51    21    51    1
    52    21    52    1
    53    22    53    1
    54    23    24   ar
    55    24    25   ar
    56    25    26   ar
    57    25    54    1
    58    26    55    1
    59    27    56    1
    60    27    57    1
    61    27    58    1
@<TRIPOS>MOLECULE
66553195
 58 61 0 0 0
SMALL
GASTEIGER

@<TRIPOS>ATOM
      1 S         115.9199  155.6215  144.1470 S.2     1  UNL1       -0.0926
      2 O         123.7573  154.9564  145.9575 O.3     1  UNL1       -0.3733
      3 O         118.5547  157.1789  146.4898 O.3     1  UNL1       -0.4941
      4 N         121.2749  151.6000  144.7850 N.ar    1  UNL1       -0.2593
      5 N         117.3507  153.4137  146.2028 N.4     1  UNL1        0.2308
      6 C         123.6501  154.1830  147.1561 C.3     1  UNL1        0.0704
      7 C         121.2666  153.4627  146.3823 C.3     1  UNL1        0.0224
      8 C         122.1706  153.9944  147.5349 C.3     1  UNL1       -0.0124
      9 C         124.3946  154.9634  148.2525 C.3     1  UNL1       -0.0237
     10 C         124.4964  152.9057  147.0922 C.3     1  UNL1       -0.0237
     11 C         121.5673  154.3513  145.1412 C.3     1  UNL1       -0.0181
     12 C         125.8761  154.7071  147.9790 C.3     1  UNL1       -0.0504
     13 C         125.9378  153.4019  147.1897 C.3     1  UNL1       -0.0504
     14 C         119.7701  153.6396  146.8028 C.3     1  UNL1       -0.0013
     15 C         123.0570  154.4250  144.8400 C.3     1  UNL1        0.0492
     16 C         121.4646  151.9724  146.0757 C.ar    1  UNL1        0.0478
     17 C         118.7599  153.3045  145.7004 C.3     1  UNL1       -0.0325
     18 C         121.7046  151.0226  147.0695 C.ar    1  UNL1       -0.0398
     19 C         121.8312  149.6798  146.7175 C.ar    1  UNL1       -0.0586
     20 C         121.4249  150.2931  144.4646 C.ar    1  UNL1        0.0279
     21 C         116.8593  154.7661  146.6171 C.3     1  UNL1        0.0021
     22 C         121.7000  149.3054  145.3888 C.ar    1  UNL1       -0.0436
     23 C         116.9190  155.7816  145.5303 C.ar    1  UNL1        0.0756
     24 C         117.7039  156.9141  145.4664 C.ar    1  UNL1        0.1353
     25 C         117.4908  157.6481  144.2636 C.ar    1  UNL1       -0.0124
     26 C         116.5440  157.0537  143.4566 C.ar    1  UNL1       -0.0203
     27 C         119.1902  158.4534  146.4226 C.3     1  UNL1        0.0788
     28 H         117.2108  152.7540  146.9762 H       1  UNL1        0.2017
     29 H         116.7322  153.0957  145.4453 H       1  UNL1        0.2017
     30 H         121.7873  154.9888  147.8100 H       1  UNL1        0.0302
     31 H         122.0779  153.3909  148.4444 H       1  UNL1        0.0302
     32 H         124.1385  154.5799  149.2479 H       1  UNL1        0.0293
     33 H         124.1776  156.0367  148.2301 H       1  UNL1        0.0293
     34 H         124.3652  152.3188  146.1804 H       1  UNL1        0.0293
     35 H         124.2832  152.2582  147.9513 H       1  UNL1        0.0293
     36 H         121.2120  155.3703  145.3490 H       1  UNL1        0.0296
     37 H         121.0388  154.0143  144.2429 H       1  UNL1        0.0296
     38 H         126.4441  154.6447  148.9128 H       1  UNL1        0.0266
     39 H         126.3070  155.5227  147.3870 H       1  UNL1        0.0266
     40 H         126.3441  153.5914  146.1893 H       1  UNL1        0.0266
     41 H         126.5842  152.6618  147.6719 H       1  UNL1        0.0266
     42 H         119.6215  154.6790  147.1175 H       1  UNL1        0.0326
     43 H         119.5584  153.0214  147.6860 H       1  UNL1        0.0326
     44 H         123.4729  153.4572  144.5452 H       1  UNL1        0.0560
     45 H         123.2227  155.1077  143.9999 H       1  UNL1        0.0560
     46 H         118.8474  153.9596  144.8302 H       1  UNL1        0.0814
     47 H         118.8489  152.2682  145.3669 H       1  UNL1        0.0814
     48 H         121.8084  151.2929  148.1147 H       1  UNL1        0.0636
     49 H         122.0438  148.9310  147.4771 H       1  UNL1        0.0619
     50 H         121.3137  150.0550  143.4098 H       1  UNL1        0.0829
     51 H         117.4316  155.0607  147.5017 H       1  UNL1        0.0873
     52 H         115.8233  154.6186  146.9437 H       1  UNL1        0.0873
     53 H         121.8124  148.2708  145.0825 H       1  UNL1        0.0633
     54 H         117.9914  158.5664  143.9816 H       1  UNL1        0.0659
     55 H         116.1883  157.3982  142.4935 H       1  UNL1        0.0694
     56 H         118.4526  159.2630  146.3981 H       1  UNL1        0.0660
     57 H         119.8658  158.5095  145.5628 H       1  UNL1        0.0660
     58 H         119.7903  158.5748  147.3295 H       1  UNL1        0.0660
@<TRIPOS>UNITY_ATOM_ATTR
5 1
charge 1
@<TRIPOS>BOND
     1     1    23   ar
     2     1    26   ar
     3     2     6    1
     4     2    15    1
     5     3    24    1
     6     3    27    1
     7     4    16   ar
     8     4    20   ar
     9     5    17    1
    10     5    21    1
    11     5    28    1
    12     5    29    1
    13     6     8    1
    14     6     9    1
    15     6    10    1
    16     7     8    1
    17     7    11    1
    18     7    14    1
    19     7    16    1
    20     8    30    1
    21     8    31    1
    22     9    12    1
    23     9    32    1
    24     9    33    1
    25    10    13    1
    26    10    34    1
    27    10    35    1
    28    11    15    1
    29    11    36    1
    30    11    37    1
    31    12    13    1
    32    12    38    1
    33    12    39    1
    34    13    40    1
    35    13    41    1
    36    14    17    1
    37    14    42    1
    38    14    43    1
    39    15    44    1
    40    15    45    1
    41    16    18   ar
    42    17    46    1
    43    17    47    1
    44    18    19   ar
    45    18    48    1
    46    19    22   ar
    47    19    49    1
    48    20    22   ar
    49    20    50    1
    50    21    23    1
    51    21    51    1
    52    21    52    1
    53    22    53    1
    54    23    24   ar
    55    24    25   ar
    56    25    26   ar
    57    25    54    1
    58    26    55    1
    59    27    56    1
    60    27    57    1
    61    27    58    1
@<TRIPOS>MOLECULE
66553195
 58 61 0 0 0
SMALL
GASTEIGER

@<TRIPOS>ATOM
      1 S         116.1566  155.8211  144.1717 S.2     1  UNL1       -0.0926
      2 O         123.8587  154.9369  145.7060 O.3     1  UNL1       -0.3733
      3 O         119.2250  157.2931  145.9811 O.3     1  UNL1       -0.4941
      4 N         121.0275  151.6725  144.8540 N.ar    1  UNL1       -0.2593
      5 N         117.4582  153.8390  146.5616 N.4     1  UNL1        0.2308
      6 C         123.8410  154.1934  146.9281 C.3     1  UNL1        0.0704
      7 C         121.3665  153.5455  146.3954 C.3     1  UNL1        0.0224
      8 C         122.3992  154.0527  147.4472 C.3     1  UNL1       -0.0124
      9 C         124.7015  154.9780  147.9332 C.3     1  UNL1       -0.0237
     10 C         124.6483  152.8948  146.8170 C.3     1  UNL1       -0.0237
     11 C         121.5857  154.4010  145.1141 C.3     1  UNL1       -0.0181
     12 C         126.1452  154.6788  147.5320 C.3     1  UNL1       -0.0504
     13 C         126.1027  153.3596  146.7648 C.3     1  UNL1       -0.0504
     14 C         119.9298  153.8095  146.9586 C.3     1  UNL1       -0.0013
     15 C         123.0407  154.4032  144.6731 C.3     1  UNL1        0.0492
     16 C         121.4562  152.0462  146.0870 C.ar    1  UNL1        0.0478
     17 C         118.7926  153.4445  145.9989 C.3     1  UNL1       -0.0325
     18 C         121.8321  151.0943  147.0341 C.ar    1  UNL1       -0.0398
     19 C         121.8461  149.7454  146.6812 C.ar    1  UNL1       -0.0586
     20 C         121.0688  150.3589  144.5287 C.ar    1  UNL1        0.0279
     21 C         117.1689  155.3029  146.7055 C.3     1  UNL1        0.0021
     22 C         121.4675  149.3674  145.4019 C.ar    1  UNL1       -0.0436
     23 C         117.2923  156.0636  145.4318 C.ar    1  UNL1        0.0756
     24 C         118.2490  156.9963  145.0865 C.ar    1  UNL1        0.1353
     25 C         118.0513  157.5056  143.7705 C.ar    1  UNL1       -0.0124
     26 C         116.9467  156.9493  143.1616 C.ar    1  UNL1       -0.0203
     27 C         120.1044  158.3420  145.5812 C.3     1  UNL1        0.0788
     28 H         117.3133  153.3762  147.4658 H       1  UNL1        0.2017
     29 H         116.7402  153.4605  145.9304 H       1  UNL1        0.2017
     30 H         122.0774  155.0614  147.7482 H       1  UNL1        0.0302
     31 H         122.3742  153.4602  148.3683 H       1  UNL1        0.0302
     32 H         124.5288  154.6226  148.9567 H       1  UNL1        0.0293
     33 H         124.5079  156.0558  147.9055 H       1  UNL1        0.0293
     34 H         124.4172  152.2906  145.9368 H       1  UNL1        0.0293
     35 H         124.5046  152.2728  147.7087 H       1  UNL1        0.0293
     36 H         121.2999  155.4375  145.3358 H       1  UNL1        0.0296
     37 H         120.9607  154.0783  144.2749 H       1  UNL1        0.0296
     38 H         126.7933  154.6167  148.4122 H       1  UNL1        0.0266
     39 H         126.5408  155.4734  146.8890 H       1  UNL1        0.0266
     40 H         126.4128  153.5241  145.7262 H       1  UNL1        0.0266
     41 H         126.7780  152.6135  147.1952 H       1  UNL1        0.0266
     42 H         119.8581  154.8697  147.2253 H       1  UNL1        0.0326
     43 H         119.7926  153.2522  147.8956 H       1  UNL1        0.0326
     44 H         123.3885  153.4109  144.3719 H       1  UNL1        0.0560
     45 H         123.1536  155.0562  143.8012 H       1  UNL1        0.0560
     46 H         118.8824  153.9141  145.0174 H       1  UNL1        0.0814
     47 H         118.7217  152.3621  145.8618 H       1  UNL1        0.0814
     48 H         122.1276  151.3640  148.0419 H       1  UNL1        0.0636
     49 H         122.1623  148.9936  147.4008 H       1  UNL1        0.0619
     50 H         120.7617  150.1185  143.5141 H       1  UNL1        0.0829
     51 H         117.8273  155.6876  147.4899 H       1  UNL1        0.0873
     52 H         116.1452  155.3667  147.0927 H       1  UNL1        0.0873
     53 H         121.4850  148.3272  145.0945 H       1  UNL1        0.0633
     54 H         118.6717  158.2419  143.2734 H       1  UNL1        0.0659
     55 H         116.5662  157.1568  142.1691 H       1  UNL1        0.0694
     56 H         120.8130  158.5119  146.3976 H       1  UNL1        0.0660
     57 H         119.5560  159.2749  145.4125 H       1  UNL1        0.0660
     58 H         120.6784  158.0559  144.6936 H       1  UNL1        0.0660
@<TRIPOS>UNITY_ATOM_ATTR
5 1
charge 1
@<TRIPOS>BOND
     1     1    23   ar
     2     1    26   ar
     3     2     6    1
     4     2    15    1
     5     3    24    1
     6     3    27    1
     7     4    16   ar
     8     4    20   ar
     9     5    17    1
    10     5    21    1
    11     5    28    1
    12     5    29    1
    13     6     8    1
    14     6     9    1
    15     6    10    1
    16     7     8    1
    17     7    11    1
    18     7    14    1
    19     7    16    1
    20     8    30    1
    21     8    31    1
    22     9    12    1
    23     9    32    1
    24     9    33    1
    25    10    13    1
    26    10    34    1
    27    10    35    1
    28    11    15    1
    29    11    36    1
    30    11    37    1
    31    12    13    1
    32    12    38    1
    33    12    39    1
    34    13    40    1
    35    13    41    1
    36    14    17    1
    37    14    42    1
    38    14    43    1
    39    15    44    1
    40    15    45    1
    41    16    18   ar
    42    17    46    1
    43    17    47    1
    44    18    19   ar
    45    18    48    1
    46    19    22   ar
    47    19    49    1
    48    20    22   ar
    49    20    50    1
    50    21    23    1
    51    21    51    1
    52    21    52    1
    53    22    53    1
    54    23    24   ar
    55    24    25   ar
    56    25    26   ar
    57    25    54    1
    58    26    55    1
    59    27    56    1
    60    27    57    1
    61    27    58    1
@<TRIPOS>MOLECULE
66553195
 58 61 0 0 0
SMALL
GASTEIGER

@<TRIPOS>ATOM
      1 S         119.8169  156.9507  149.8798 S.2     1  UNL1       -0.0926
      2 O         123.9782  154.8591  145.5449 O.3     1  UNL1       -0.3733
      3 O         118.8318  153.5920  151.4973 O.3     1  UNL1       -0.4941
      4 N         120.6767  151.6384  144.9863 N.ar    1  UNL1       -0.2593
      5 N         118.2965  153.5461  148.5903 N.4     1  UNL1        0.2308
      6 C         123.9954  154.1637  146.7922 C.3     1  UNL1        0.0704
      7 C         121.4937  153.5079  146.3263 C.3     1  UNL1        0.0224
      8 C         122.5662  153.9930  147.3470 C.3     1  UNL1       -0.0124
      9 C         124.8420  155.0124  147.7591 C.3     1  UNL1       -0.0237
     10 C         124.8531  152.8954  146.7128 C.3     1  UNL1       -0.0237
     11 C         121.7016  154.3198  145.0155 C.3     1  UNL1       -0.0181
     12 C         126.2935  154.7445  147.3614 C.3     1  UNL1       -0.0504
     13 C         126.2850  153.4165  146.6097 C.3     1  UNL1       -0.0504
     14 C         120.0625  153.8732  146.8544 C.3     1  UNL1       -0.0013
     15 C         123.1446  154.2793  144.5485 C.3     1  UNL1        0.0492
     16 C         121.4796  152.0056  146.0167 C.ar    1  UNL1        0.0478
     17 C         119.6560  153.1319  148.1241 C.3     1  UNL1       -0.0325
     18 C         122.1276  151.0427  146.7877 C.ar    1  UNL1       -0.0398
     19 C         122.0144  149.6952  146.4441 C.ar    1  UNL1       -0.0586
     20 C         120.5969  150.3285  144.6573 C.ar    1  UNL1        0.0279
     21 C         118.0909  154.9767  148.9819 C.3     1  UNL1        0.0021
     22 C         121.2440  149.3279  145.3517 C.ar    1  UNL1       -0.0436
     23 C         119.0213  155.4438  150.0486 C.ar    1  UNL1        0.0756
     24 C         119.3625  154.8152  151.2300 C.ar    1  UNL1        0.1353
     25 C         120.2841  155.5839  151.9997 C.ar    1  UNL1       -0.0124
     26 C         120.6118  156.7705  151.3794 C.ar    1  UNL1       -0.0203
     27 C         119.2138  153.0475  152.7607 C.3     1  UNL1        0.0788
     28 H         118.0847  152.9967  149.4363 H       1  UNL1        0.2017
     29 H         117.5941  153.2813  147.8896 H       1  UNL1        0.2017
     30 H         122.2471  154.9916  147.6827 H       1  UNL1        0.0302
     31 H         122.5797  153.3791  148.2544 H       1  UNL1        0.0302
     32 H         124.6870  154.6921  148.7971 H       1  UNL1        0.0293
     33 H         124.6144  156.0818  147.6925 H       1  UNL1        0.0293
     34 H         124.6268  152.2497  145.8614 H       1  UNL1        0.0293
     35 H         124.7605  152.3055  147.6322 H       1  UNL1        0.0293
     36 H         121.4433  155.3705  145.2087 H       1  UNL1        0.0296
     37 H         121.0408  153.9829  144.2085 H       1  UNL1        0.0296
     38 H         126.9394  154.7056  148.2447 H       1  UNL1        0.0266
     39 H         126.6728  155.5418  146.7125 H       1  UNL1        0.0266
     40 H         126.5551  153.5815  145.5601 H       1  UNL1        0.0266
     41 H         127.0038  152.7042  147.0266 H       1  UNL1        0.0266
     42 H         119.3116  153.6764  146.0766 H       1  UNL1        0.0326
     43 H         120.0296  154.9549  147.0318 H       1  UNL1        0.0326
     44 H         123.4757  153.2672  144.2978 H       1  UNL1        0.0560
     45 H         123.2524  154.8854  143.6431 H       1  UNL1        0.0560
     46 H         119.5789  152.0541  147.9552 H       1  UNL1        0.0814
     47 H         120.3543  153.2990  148.9477 H       1  UNL1        0.0814
     48 H         122.7268  151.2941  147.6536 H       1  UNL1        0.0636
     49 H         122.5360  148.9356  147.0219 H       1  UNL1        0.0619
     50 H         119.9789  150.1014  143.7924 H       1  UNL1        0.0829
     51 H         117.0581  155.0380  149.3439 H       1  UNL1        0.0873
     52 H         118.1502  155.5708  148.0647 H       1  UNL1        0.0873
     53 H         121.1525  148.2903  145.0492 H       1  UNL1        0.0633
     54 H         120.7012  155.3072  152.9605 H       1  UNL1        0.0659
     55 H         121.2814  157.5422  151.7385 H       1  UNL1        0.0694
     56 H         118.7149  152.0801  152.8706 H       1  UNL1        0.0660
     57 H         118.8867  153.6913  153.5840 H       1  UNL1        0.0660
     58 H         120.2944  152.8728  152.8010 H       1  UNL1        0.0660
@<TRIPOS>UNITY_ATOM_ATTR
5 1
charge 1
@<TRIPOS>BOND
     1     1    23   ar
     2     1    26   ar
     3     2     6    1
     4     2    15    1
     5     3    24    1
     6     3    27    1
     7     4    16   ar
     8     4    20   ar
     9     5    17    1
    10     5    21    1
    11     5    28    1
    12     5    29    1
    13     6     8    1
    14     6     9    1
    15     6    10    1
    16     7     8    1
    17     7    11    1
    18     7    14    1
    19     7    16    1
    20     8    30    1
    21     8    31    1
    22     9    12    1
    23     9    32    1
    24     9    33    1
    25    10    13    1
    26    10    34    1
    27    10    35    1
    28    11    15    1
    29    11    36    1
    30    11    37    1
    31    12    13    1
    32    12    38    1
    33    12    39    1
    34    13    40    1
    35    13    41    1
    36    14    17    1
    37    14    42    1
    38    14    43    1
    39    15    44    1
    40    15    45    1
    41    16    18   ar
    42    17    46    1
    43    17    47    1
    44    18    19   ar
    45    18    48    1
    46    19    22   ar
    47    19    49    1
    48    20    22   ar
    49    20    50    1
    50    21    23    1
    51    21    51    1
    52    21    52    1
    53    22    53    1
    54    23    24   ar
    55    24    25   ar
    56    25    26   ar
    57    25    54    1
    58    26    55    1
    59    27    56    1
    60    27    57    1
    61    27    58    1
@<TRIPOS>MOLECULE
66553195
 58 61 0 0 0
SMALL
GASTEIGER

@<TRIPOS>ATOM
      1 S         116.2262  152.9288  145.2230 S.2     1  UNL1       -0.0926
      2 O         124.1303  154.7905  145.7322 O.3     1  UNL1       -0.3733
      3 O         117.2637  156.0699  147.2042 O.3     1  UNL1       -0.4941
      4 N         121.7496  151.2561  147.2775 N.ar    1  UNL1       -0.2593
      5 N         118.3108  153.7152  148.5203 N.4     1  UNL1        0.2308
      6 C         124.0334  154.0423  146.9483 C.3     1  UNL1        0.0704
      7 C         121.5625  153.5075  146.3381 C.3     1  UNL1        0.0224
      8 C         122.5718  153.9890  147.4234 C.3     1  UNL1       -0.0124
      9 C         124.9114  154.7644  147.9839 C.3     1  UNL1       -0.0237
     10 C         124.7543  152.6917  146.8535 C.3     1  UNL1       -0.0237
     11 C         121.8525  154.3449  145.0619 C.3     1  UNL1       -0.0181
     12 C         126.3433  154.3730  147.6230 C.3     1  UNL1       -0.0504
     13 C         126.2387  153.0529  146.8635 C.3     1  UNL1       -0.0504
     14 C         120.0977  153.8343  146.7799 C.3     1  UNL1       -0.0013
     15 C         123.3217  154.3110  144.6665 C.3     1  UNL1        0.0492
     16 C         121.6424  151.9895  146.1376 C.ar    1  UNL1        0.0478
     17 C         119.6281  153.1583  148.0710 C.3     1  UNL1       -0.0325
     18 C         121.5318  151.3704  144.8932 C.ar    1  UNL1       -0.0398
     19 C         121.5917  149.9796  144.8124 C.ar    1  UNL1       -0.0586
     20 C         121.8304  149.9085  147.1684 C.ar    1  UNL1        0.0279
     21 C         117.0840  153.1820  147.8471 C.3     1  UNL1        0.0021
     22 C         121.7538  149.2315  145.9684 C.ar    1  UNL1       -0.0436
     23 C         116.7695  153.8567  146.5559 C.ar    1  UNL1        0.0756
     24 C         116.8312  155.2025  146.2500 C.ar    1  UNL1        0.1353
     25 C         116.4357  155.4667  144.9065 C.ar    1  UNL1       -0.0124
     26 C         116.0798  154.3153  144.2375 C.ar    1  UNL1       -0.0203
     27 C         117.2097  157.4440  146.8192 C.3     1  UNL1        0.0788
     28 H         118.2952  154.7428  148.4244 H       1  UNL1        0.2017
     29 H         118.2158  153.5288  149.5247 H       1  UNL1        0.2017
     30 H         122.2820  155.0120  147.7060 H       1  UNL1        0.0302
     31 H         122.5049  153.3955  148.3428 H       1  UNL1        0.0302
     32 H         124.6859  154.4157  148.9994 H       1  UNL1        0.0293
     33 H         124.7894  155.8525  147.9580 H       1  UNL1        0.0293
     34 H         124.5181  152.1122  145.9584 H       1  UNL1        0.0293
     35 H         124.5296  152.0722  147.7304 H       1  UNL1        0.0293
     36 H         121.5970  155.3934  145.2724 H       1  UNL1        0.0296
     37 H         121.2213  154.0483  144.2177 H       1  UNL1        0.0296
     38 H         126.9646  154.2789  148.5194 H       1  UNL1        0.0266
     39 H         126.8027  155.1362  146.9844 H       1  UNL1        0.0266
     40 H         126.6061  153.1839  145.8390 H       1  UNL1        0.0266
     41 H         126.8385  152.2645  147.3292 H       1  UNL1        0.0266
     42 H         119.4244  153.5493  145.9630 H       1  UNL1        0.0326
     43 H         120.0004  154.9220  146.8976 H       1  UNL1        0.0326
     44 H         123.6495  153.3166  144.3517 H       1  UNL1        0.0560
     45 H         123.4815  154.9785  143.8131 H       1  UNL1        0.0560
     46 H         119.4922  152.0788  147.9744 H       1  UNL1        0.0814
     47 H         120.3155  153.3607  148.8965 H       1  UNL1        0.0814
     48 H         121.4081  151.9291  143.9724 H       1  UNL1        0.0636
     49 H         121.5234  149.4841  143.8466 H       1  UNL1        0.0619
     50 H         121.9637  149.3706  148.1033 H       1  UNL1        0.0829
     51 H         116.2618  153.3632  148.5493 H       1  UNL1        0.0873
     52 H         117.2092  152.0981  147.7536 H       1  UNL1        0.0873
     53 H         121.8224  148.1496  145.9320 H       1  UNL1        0.0633
     54 H         116.4030  156.4390  144.4298 H       1  UNL1        0.0659
     55 H         115.7375  154.2241  143.2141 H       1  UNL1        0.0694
     56 H         117.5440  158.0415  147.6727 H       1  UNL1        0.0660
     57 H         116.1856  157.7468  146.5766 H       1  UNL1        0.0660
     58 H         117.8897  157.6432  145.9841 H       1  UNL1        0.0660
@<TRIPOS>UNITY_ATOM_ATTR
5 1
charge 1
@<TRIPOS>BOND
     1     1    23   ar
     2     1    26   ar
     3     2     6    1
     4     2    15    1
     5     3    24    1
     6     3    27    1
     7     4    16   ar
     8     4    20   ar
     9     5    17    1
    10     5    21    1
    11     5    28    1
    12     5    29    1
    13     6     8    1
    14     6     9    1
    15     6    10    1
    16     7     8    1
    17     7    11    1
    18     7    14    1
    19     7    16    1
    20     8    30    1
    21     8    31    1
    22     9    12    1
    23     9    32    1
    24     9    33    1
    25    10    13    1
    26    10    34    1
    27    10    35    1
    28    11    15    1
    29    11    36    1
    30    11    37    1
    31    12    13    1
    32    12    38    1
    33    12    39    1
    34    13    40    1
    35    13    41    1
    36    14    17    1
    37    14    42    1
    38    14    43    1
    39    15    44    1
    40    15    45    1
    41    16    18   ar
    42    17    46    1
    43    17    47    1
    44    18    19   ar
    45    18    48    1
    46    19    22   ar
    47    19    49    1
    48    20    22   ar
    49    20    50    1
    50    21    23    1
    51    21    51    1
    52    21    52    1
    53    22    53    1
    54    23    24   ar
    55    24    25   ar
    56    25    26   ar
    57    25    54    1
    58    26    55    1
    59    27    56    1
    60    27    57    1
    61    27    58    1
@<TRIPOS>MOLECULE
66553195
 58 61 0 0 0
SMALL
GASTEIGER

@<TRIPOS>ATOM
      1 S         116.0131  150.7338  146.6298 S.2     1  UNL1       -0.0926
      2 O         123.8669  155.0813  145.8624 O.3     1  UNL1       -0.3733
      3 O         118.4863  151.2056  149.5461 O.3     1  UNL1       -0.4941
      4 N         121.2590  151.2765  147.0200 N.ar    1  UNL1       -0.2593
      5 N         117.4566  153.6706  146.4683 N.4     1  UNL1        0.2308
      6 C         123.8134  154.1732  146.9675 C.3     1  UNL1        0.0704
      7 C         121.3727  153.5985  146.2810 C.3     1  UNL1        0.0224
      8 C         122.3595  153.9961  147.4190 C.3     1  UNL1       -0.0124
      9 C         124.6584  154.7912  148.0933 C.3     1  UNL1       -0.0237
     10 C         124.5899  152.8776  146.7016 C.3     1  UNL1       -0.0237
     11 C         121.6229  154.5560  145.0884 C.3     1  UNL1       -0.0181
     12 C         126.1046  154.5170  147.6875 C.3     1  UNL1       -0.0504
     13 C         126.0597  153.2870  146.7850 C.3     1  UNL1       -0.0504
     14 C         119.9216  153.8320  146.8362 C.3     1  UNL1       -0.0013
     15 C         123.1002  154.6981  144.7315 C.3     1  UNL1        0.0492
     16 C         121.5015  152.1022  145.9700 C.ar    1  UNL1        0.0478
     17 C         118.8080  153.3015  145.9354 C.3     1  UNL1       -0.0325
     18 C         121.7534  151.5867  144.6990 C.ar    1  UNL1       -0.0398
     19 C         121.8086  150.2048  144.5179 C.ar    1  UNL1       -0.0586
     20 C         121.3354  149.9405  146.8226 C.ar    1  UNL1        0.0279
     21 C         117.0420  153.0542  147.7723 C.3     1  UNL1        0.0021
     22 C         121.6029  149.3623  145.5993 C.ar    1  UNL1       -0.0436
     23 C         117.0028  151.5657  147.7554 C.ar    1  UNL1        0.0756
     24 C         117.6788  150.6940  148.5838 C.ar    1  UNL1        0.1353
     25 C         117.4033  149.3316  148.2699 C.ar    1  UNL1       -0.0124
     26 C         116.5149  149.2123  147.2225 C.ar    1  UNL1       -0.0203
     27 C         119.0919  150.2387  150.3984 C.3     1  UNL1        0.0788
     28 H         116.7549  153.3799  145.7760 H       1  UNL1        0.2017
     29 H         117.3785  154.6905  146.5492 H       1  UNL1        0.2017
     30 H         122.0256  154.9662  147.8171 H       1  UNL1        0.0302
     31 H         122.3059  153.2939  148.2610 H       1  UNL1        0.0302
     32 H         124.4518  154.3003  149.0525 H       1  UNL1        0.0293
     33 H         124.4869  155.8664  148.2115 H       1  UNL1        0.0293
     34 H         124.3904  152.4174  145.7322 H       1  UNL1        0.0293
     35 H         124.3771  152.1347  147.4803 H       1  UNL1        0.0293
     36 H         121.2666  155.5564  145.3714 H       1  UNL1        0.0296
     37 H         121.0491  154.2686  144.2007 H       1  UNL1        0.0296
     38 H         126.7395  154.3565  148.5647 H       1  UNL1        0.0266
     39 H         126.5173  155.3693  147.1356 H       1  UNL1        0.0266
     40 H         126.4425  153.5419  145.7900 H       1  UNL1        0.0266
     41 H         126.6774  152.4717  147.1751 H       1  UNL1        0.0266
     42 H         119.7660  154.9052  147.0112 H       1  UNL1        0.0326
     43 H         119.8388  153.3565  147.8221 H       1  UNL1        0.0326
     44 H         123.5165  153.7925  144.2842 H       1  UNL1        0.0560
     45 H         123.2114  155.4887  143.9815 H       1  UNL1        0.0560
     46 H         118.8585  153.7570  144.9419 H       1  UNL1        0.0814
     47 H         118.8258  152.2157  145.8160 H       1  UNL1        0.0814
     48 H         121.9207  152.2167  143.8333 H       1  UNL1        0.0636
     49 H         122.0240  149.7886  143.5364 H       1  UNL1        0.0619
     50 H         121.1717  149.3286  147.7049 H       1  UNL1        0.0829
     51 H         116.0420  153.4517  147.9820 H       1  UNL1        0.0873
     52 H         117.7106  153.4519  148.5413 H       1  UNL1        0.0873
     53 H         121.6564  148.2845  145.4910 H       1  UNL1        0.0633
     54 H         117.8169  148.4675  148.7750 H       1  UNL1        0.0659
     55 H         116.1298  148.2998  146.7847 H       1  UNL1        0.0694
     56 H         119.6957  150.7753  151.1365 H       1  UNL1        0.0660
     57 H         119.7597  149.5788  149.8354 H       1  UNL1        0.0660
     58 H         118.3351  149.6612  150.9401 H       1  UNL1        0.0660
@<TRIPOS>UNITY_ATOM_ATTR
5 1
charge 1
@<TRIPOS>BOND
     1     1    23   ar
     2     1    26   ar
     3     2     6    1
     4     2    15    1
     5     3    24    1
     6     3    27    1
     7     4    16   ar
     8     4    20   ar
     9     5    17    1
    10     5    21    1
    11     5    28    1
    12     5    29    1
    13     6     8    1
    14     6     9    1
    15     6    10    1
    16     7     8    1
    17     7    11    1
    18     7    14    1
    19     7    16    1
    20     8    30    1
    21     8    31    1
    22     9    12    1
    23     9    32    1
    24     9    33    1
    25    10    13    1
    26    10    34    1
    27    10    35    1
    28    11    15    1
    29    11    36    1
    30    11    37    1
    31    12    13    1
    32    12    38    1
    33    12    39    1
    34    13    40    1
    35    13    41    1
    36    14    17    1
    37    14    42    1
    38    14    43    1
    39    15    44    1
    40    15    45    1
    41    16    18   ar
    42    17    46    1
    43    17    47    1
    44    18    19   ar
    45    18    48    1
    46    19    22   ar
    47    19    49    1
    48    20    22   ar
    49    20    50    1
    50    21    23    1
    51    21    51    1
    52    21    52    1
    53    22    53    1
    54    23    24   ar
    55    24    25   ar
    56    25    26   ar
    57    25    54    1
    58    26    55    1
    59    27    56    1
    60    27    57    1
    61    27    58    1
@<TRIPOS>MOLECULE
66553195
 58 61 0 0 0
SMALL
GASTEIGER

@<TRIPOS>ATOM
      1 S         116.5924  152.2797  149.1366 S.2     1  UNL1       -0.0926
      2 O         123.8603  154.7618  145.4745 O.3     1  UNL1       -0.3733
      3 O         115.7796  150.0301  146.1164 O.3     1  UNL1       -0.4941
      4 N         121.1219  151.3087  145.3905 N.ar    1  UNL1       -0.2593
      5 N         118.5780  152.0324  146.0545 N.4     1  UNL1        0.2308
      6 C         123.9311  154.2532  146.8089 C.3     1  UNL1        0.0704
      7 C         121.4477  153.4631  146.5423 C.3     1  UNL1        0.0224
      8 C         122.5215  154.1794  147.4231 C.3     1  UNL1       -0.0124
      9 C         124.8154  155.2246  147.6104 C.3     1  UNL1       -0.0237
     10 C         124.7739  152.9746  146.8848 C.3     1  UNL1       -0.0237
     11 C         121.5709  154.0768  145.1194 C.3     1  UNL1       -0.0181
     12 C         126.2502  154.8814  147.2106 C.3     1  UNL1       -0.0504
     13 C         126.2070  153.4555  146.6689 C.3     1  UNL1       -0.0504
     14 C         120.0376  153.7940  147.1434 C.3     1  UNL1       -0.0013
     15 C         123.0022  154.0405  144.6014 C.3     1  UNL1        0.0492
     16 C         121.6038  151.9342  146.5038 C.ar    1  UNL1        0.0478
     17 C         118.7914  153.4782  146.3023 C.3     1  UNL1       -0.0325
     18 C         122.0974  151.1917  147.5750 C.ar    1  UNL1       -0.0398
     19 C         122.2229  149.8079  147.4525 C.ar    1  UNL1       -0.0586
     20 C         121.3213  149.9697  145.2695 C.ar    1  UNL1        0.0279
     21 C         118.2668  151.1543  147.2206 C.3     1  UNL1        0.0021
     22 C         121.8526  149.1848  146.2705 C.ar    1  UNL1       -0.0436
     23 C         116.8816  151.3401  147.7343 C.ar    1  UNL1        0.0756
     24 C         115.7155  150.8061  147.2282 C.ar    1  UNL1        0.1353
     25 C         114.5716  151.1961  147.9829 C.ar    1  UNL1       -0.0124
     26 C         114.9092  152.0017  149.0499 C.ar    1  UNL1       -0.0203
     27 C         114.6180  149.2319  145.8920 C.3     1  UNL1        0.0788
     28 H         119.4254  151.6550  145.5882 H       1  UNL1        0.2017
     29 H         117.8228  151.9031  145.3699 H       1  UNL1        0.2017
     30 H         122.1871  155.2205  147.5496 H       1  UNL1        0.0302
     31 H         122.5601  153.7703  148.4387 H       1  UNL1        0.0302
     32 H         124.6939  155.0630  148.6889 H       1  UNL1        0.0293
     33 H         124.5946  156.2752  147.3934 H       1  UNL1        0.0293
     34 H         124.5192  152.2188  146.1385 H       1  UNL1        0.0293
     35 H         124.6984  152.5194  147.8795 H       1  UNL1        0.0293
     36 H         121.2553  155.1284  145.1659 H       1  UNL1        0.0296
     37 H         120.9153  153.5852  144.3924 H       1  UNL1        0.0296
     38 H         126.9261  154.9681  148.0677 H       1  UNL1        0.0266
     39 H         126.6130  155.5668  146.4365 H       1  UNL1        0.0266
     40 H         126.4506  153.4568  145.6000 H       1  UNL1        0.0266
     41 H         126.9298  152.8039  147.1700 H       1  UNL1        0.0266
     42 H         119.9958  154.8767  147.3290 H       1  UNL1        0.0326
     43 H         119.9431  153.3333  148.1348 H       1  UNL1        0.0326
     44 H         123.3663  153.0194  144.4551 H       1  UNL1        0.0560
     45 H         123.0458  154.5340  143.6247 H       1  UNL1        0.0560
     46 H         117.8913  153.8641  146.7905 H       1  UNL1        0.0814
     47 H         118.8477  153.9541  145.3187 H       1  UNL1        0.0814
     48 H         122.4161  151.6535  148.5039 H       1  UNL1        0.0636
     49 H         122.6423  149.2228  148.2689 H       1  UNL1        0.0619
     50 H         121.0231  149.5327  144.3187 H       1  UNL1        0.0829
     51 H         119.0268  151.3175  147.9892 H       1  UNL1        0.0873
     52 H         118.3946  150.1271  146.8603 H       1  UNL1        0.0873
     53 H         121.9841  148.1160  146.1340 H       1  UNL1        0.0633
     54 H         113.5463  150.9152  147.7755 H       1  UNL1        0.0659
     55 H         114.2441  152.4363  149.7856 H       1  UNL1        0.0694
     56 H         114.8323  148.5586  145.0566 H       1  UNL1        0.0660
     57 H         113.7634  149.8558  145.6113 H       1  UNL1        0.0660
     58 H         114.3842  148.6154  146.7673 H       1  UNL1        0.0660
@<TRIPOS>UNITY_ATOM_ATTR
5 1
charge 1
@<TRIPOS>BOND
     1     1    23   ar
     2     1    26   ar
     3     2     6    1
     4     2    15    1
     5     3    24    1
     6     3    27    1
     7     4    16   ar
     8     4    20   ar
     9     5    17    1
    10     5    21    1
    11     5    28    1
    12     5    29    1
    13     6     8    1
    14     6     9    1
    15     6    10    1
    16     7     8    1
    17     7    11    1
    18     7    14    1
    19     7    16    1
    20     8    30    1
    21     8    31    1
    22     9    12    1
    23     9    32    1
    24     9    33    1
    25    10    13    1
    26    10    34    1
    27    10    35    1
    28    11    15    1
    29    11    36    1
    30    11    37    1
    31    12    13    1
    32    12    38    1
    33    12    39    1
    34    13    40    1
    35    13    41    1
    36    14    17    1
    37    14    42    1
    38    14    43    1
    39    15    44    1
    40    15    45    1
    41    16    18   ar
    42    17    46    1
    43    17    47    1
    44    18    19   ar
    45    18    48    1
    46    19    22   ar
    47    19    49    1
    48    20    22   ar
    49    20    50    1
    50    21    23    1
    51    21    51    1
    52    21    52    1
    53    22    53    1
    54    23    24   ar
    55    24    25   ar
    56    25    26   ar
    57    25    54    1
    58    26    55    1
    59    27    56    1
    60    27    57    1
    61    27    58    1
@<TRIPOS>MOLECULE
66553195
 58 61 0 0 0
SMALL
GASTEIGER

@<TRIPOS>ATOM
      1 S         116.5114  152.6785  148.0743 S.2     1  UNL1       -0.0926
      2 O         124.1015  154.9630  145.7948 O.3     1  UNL1       -0.3733
      3 O         119.0763  154.0444  150.6071 O.3     1  UNL1       -0.4941
      4 N         121.5366  151.4336  147.0111 N.ar    1  UNL1       -0.2593
      5 N         118.0743  155.4523  147.0517 N.4     1  UNL1        0.2308
      6 C         123.8879  154.1674  146.9683 C.3     1  UNL1        0.0704
      7 C         121.4761  153.7144  146.1183 C.3     1  UNL1        0.0224
      8 C         122.3876  154.1418  147.3073 C.3     1  UNL1       -0.0124
      9 C         124.6866  154.8316  148.1024 C.3     1  UNL1       -0.0237
     10 C         124.5905  152.8070  146.8838 C.3     1  UNL1       -0.0237
     11 C         121.8897  154.5776  144.8987 C.3     1  UNL1       -0.0181
     12 C         126.1372  154.4251  147.8487 C.3     1  UNL1       -0.0504
     13 C         126.0748  153.1370  147.0323 C.3     1  UNL1       -0.0504
     14 C         119.9624  153.9450  146.4545 C.3     1  UNL1       -0.0013
     15 C         123.3916  154.5317  144.6411 C.3     1  UNL1        0.0492
     16 C         121.5822  152.1952  145.8869 C.ar    1  UNL1        0.0478
     17 C         119.5678  155.3420  146.9301 C.3     1  UNL1       -0.0325
     18 C         121.6387  151.6064  144.6234 C.ar    1  UNL1       -0.0398
     19 C         121.6986  150.2170  144.5177 C.ar    1  UNL1       -0.0586
     20 C         121.6031  150.0888  146.8816 C.ar    1  UNL1        0.0279
     21 C         117.5004  155.2477  148.4224 C.3     1  UNL1        0.0021
     22 C         121.6864  149.4403  145.6663 C.ar    1  UNL1       -0.0436
     23 C         117.5083  153.8285  148.8634 C.ar    1  UNL1        0.0756
     24 C         118.2373  153.2587  149.8862 C.ar    1  UNL1        0.1353
     25 C         117.9883  151.8606  150.0073 C.ar    1  UNL1       -0.0124
     26 C         117.0694  151.4165  149.0807 C.ar    1  UNL1       -0.0203
     27 C         119.6556  153.4077  151.7437 C.3     1  UNL1        0.0788
     28 H         117.6072  154.7951  146.4135 H       1  UNL1        0.2017
     29 H         117.7924  156.3910  146.7463 H       1  UNL1        0.2017
     30 H         122.1214  155.1702  147.5836 H       1  UNL1        0.0302
     31 H         122.2025  153.5348  148.2022 H       1  UNL1        0.0302
     32 H         124.3687  154.4490  149.0802 H       1  UNL1        0.0293
     33 H         124.5866  155.9223  148.1093 H       1  UNL1        0.0293
     34 H         124.4248  152.2648  145.9506 H       1  UNL1        0.0293
     35 H         124.2807  152.1612  147.7145 H       1  UNL1        0.0293
     36 H         121.6409  155.6259  145.1035 H       1  UNL1        0.0296
     37 H         121.3355  154.3076  143.9936 H       1  UNL1        0.0296
     38 H         126.6785  154.2847  148.7899 H       1  UNL1        0.0266
     39 H         126.6624  155.2020  147.2813 H       1  UNL1        0.0266
     40 H         126.5295  153.2991  146.0479 H       1  UNL1        0.0266
     41 H         126.6197  152.3195  147.5148 H       1  UNL1        0.0266
     42 H         119.6602  153.2306  147.2286 H       1  UNL1        0.0326
     43 H         119.3673  153.6895  145.5658 H       1  UNL1        0.0326
     44 H         123.7376  153.5451  144.3222 H       1  UNL1        0.0560
     45 H         123.6388  155.2257  143.8307 H       1  UNL1        0.0560
     46 H         120.0011  155.6075  147.8982 H       1  UNL1        0.0814
     47 H         119.8489  156.1029  146.1981 H       1  UNL1        0.0814
     48 H         121.6443  152.1865  143.7083 H       1  UNL1        0.0636
     49 H         121.7583  149.7437  143.5405 H       1  UNL1        0.0619
     50 H         121.5883  149.5300  147.8132 H       1  UNL1        0.0829
     51 H         116.4707  155.6208  148.3716 H       1  UNL1        0.0873
     52 H         118.0489  155.9081  149.1023 H       1  UNL1        0.0873
     53 H         121.7397  148.3584  145.6142 H       1  UNL1        0.0633
     54 H         118.4482  151.1933  150.7260 H       1  UNL1        0.0659
     55 H         116.6988  150.4074  148.9507 H       1  UNL1        0.0694
     56 H         120.3259  152.5969  151.4399 H       1  UNL1        0.0660
     57 H         118.8832  153.0441  152.4304 H       1  UNL1        0.0660
     58 H         120.2518  154.1545  152.2768 H       1  UNL1        0.0660
@<TRIPOS>UNITY_ATOM_ATTR
5 1
charge 1
@<TRIPOS>BOND
     1     1    23   ar
     2     1    26   ar
     3     2     6    1
     4     2    15    1
     5     3    24    1
     6     3    27    1
     7     4    16   ar
     8     4    20   ar
     9     5    17    1
    10     5    21    1
    11     5    28    1
    12     5    29    1
    13     6     8    1
    14     6     9    1
    15     6    10    1
    16     7     8    1
    17     7    11    1
    18     7    14    1
    19     7    16    1
    20     8    30    1
    21     8    31    1
    22     9    12    1
    23     9    32    1
    24     9    33    1
    25    10    13    1
    26    10    34    1
    27    10    35    1
    28    11    15    1
    29    11    36    1
    30    11    37    1
    31    12    13    1
    32    12    38    1
    33    12    39    1
    34    13    40    1
    35    13    41    1
    36    14    17    1
    37    14    42    1
    38    14    43    1
    39    15    44    1
    40    15    45    1
    41    16    18   ar
    42    17    46    1
    43    17    47    1
    44    18    19   ar
    45    18    48    1
    46    19    22   ar
    47    19    49    1
    48    20    22   ar
    49    20    50    1
    50    21    23    1
    51    21    51    1
    52    21    52    1
    53    22    53    1
    54    23    24   ar
    55    24    25   ar
    56    25    26   ar
    57    25    54    1
    58    26    55    1
    59    27    56    1
    60    27    57    1
    61    27    58    1
@<TRIPOS>MOLECULE
66553195
 58 61 0 0 0
SMALL
GASTEIGER

@<TRIPOS>ATOM
      1 S         115.9599  155.8235  144.0884 S.2     1  UNL1       -0.0926
      2 O         124.1407  154.7350  145.8575 O.3     1  UNL1       -0.3733
      3 O         119.3420  157.1733  145.3483 O.3     1  UNL1       -0.4941
      4 N         121.0641  151.2777  147.1760 N.ar    1  UNL1       -0.2593
      5 N         117.6209  153.9039  146.3688 N.4     1  UNL1        0.2308
      6 C         123.9757  153.9132  147.0179 C.3     1  UNL1        0.0704
      7 C         121.5156  153.5004  146.2777 C.3     1  UNL1        0.0224
      8 C         122.4983  153.8848  147.4234 C.3     1  UNL1       -0.0124
      9 C         124.8301  154.5404  148.1317 C.3     1  UNL1       -0.0237
     10 C         124.6526  152.5451  146.8715 C.3     1  UNL1       -0.0237
     11 C         121.8959  154.3263  145.0224 C.3     1  UNL1       -0.0181
     12 C         126.2620  154.1250  147.8024 C.3     1  UNL1       -0.0504
     13 C         126.1470  152.8458  146.9777 C.3     1  UNL1       -0.0504
     14 C         120.0812  153.9266  146.7531 C.3     1  UNL1       -0.0013
     15 C         123.3917  154.3272  144.7237 C.3     1  UNL1        0.0492
     16 C         121.4947  151.9780  146.0939 C.ar    1  UNL1        0.0478
     17 C         118.9561  153.5317  145.7991 C.3     1  UNL1       -0.0325
     18 C         121.8108  151.3278  144.9023 C.ar    1  UNL1       -0.0398
     19 C         121.7432  149.9357  144.8420 C.ar    1  UNL1       -0.0586
     20 C         121.0282  149.9269  147.0998 C.ar    1  UNL1        0.0279
     21 C         117.2988  155.3623  146.4762 C.3     1  UNL1        0.0021
     22 C         121.3542  149.2176  145.9624 C.ar    1  UNL1       -0.0436
     23 C         117.2777  156.0555  145.1583 C.ar    1  UNL1        0.0756
     24 C         118.2231  156.9099  144.6282 C.ar    1  UNL1        0.1353
     25 C         117.8552  157.3817  143.3349 C.ar    1  UNL1       -0.0124
     26 C         116.6429  156.8702  142.9241 C.ar    1  UNL1       -0.0203
     27 C         120.1950  158.1684  144.7867 C.3     1  UNL1        0.0788
     28 H         117.5229  153.4706  147.2953 H       1  UNL1        0.2017
     29 H         116.8936  153.4787  145.7804 H       1  UNL1        0.2017
     30 H         122.2387  154.9031  147.7497 H       1  UNL1        0.0302
     31 H         122.3576  153.2448  148.3041 H       1  UNL1        0.0302
     32 H         124.5520  154.1363  149.1130 H       1  UNL1        0.0293
     33 H         124.7426  155.6315  148.1703 H       1  UNL1        0.0293
     34 H         124.4460  152.0319  145.9308 H       1  UNL1        0.0293
     35 H         124.3577  151.8798  147.6925 H       1  UNL1        0.0293
     36 H         121.6125  155.3718  145.2038 H       1  UNL1        0.0296
     37 H         121.3373  154.0078  144.1353 H       1  UNL1        0.0296
     38 H         126.8498  153.9719  148.7131 H       1  UNL1        0.0266
     39 H         126.7632  154.9035  147.2156 H       1  UNL1        0.0266
     40 H         126.5757  153.0067  145.9816 H       1  UNL1        0.0266
     41 H         126.6889  152.0132  147.4374 H       1  UNL1        0.0266
     42 H         120.0733  155.0129  146.9017 H       1  UNL1        0.0326
     43 H         119.8720  153.4964  147.7427 H       1  UNL1        0.0326
     44 H         123.7532  153.3627  144.3606 H       1  UNL1        0.0560
     45 H         123.5944  155.0490  143.9249 H       1  UNL1        0.0560
     46 H         119.0476  154.0014  144.8165 H       1  UNL1        0.0814
     47 H         118.9060  152.4487  145.6565 H       1  UNL1        0.0814
     48 H         122.1236  151.8575  144.0104 H       1  UNL1        0.0636
     49 H         122.0089  149.4133  143.9256 H       1  UNL1        0.0619
     50 H         120.7220  149.4155  148.0087 H       1  UNL1        0.0829
     51 H         118.0142  155.8082  147.1734 H       1  UNL1        0.0873
     52 H         116.3144  155.4146  146.9560 H       1  UNL1        0.0873
     53 H         121.3125  148.1337  145.9495 H       1  UNL1        0.0633
     54 H         118.4309  158.0614  142.7179 H       1  UNL1        0.0659
     55 H         116.1262  157.0642  141.9922 H       1  UNL1        0.0694
     56 H         121.0271  158.3236  145.4803 H       1  UNL1        0.0660
     57 H         119.6694  159.1224  144.6726 H       1  UNL1        0.0660
     58 H         120.6134  157.8316  143.8324 H       1  UNL1        0.0660
@<TRIPOS>UNITY_ATOM_ATTR
5 1
charge 1
@<TRIPOS>BOND
     1     1    23   ar
     2     1    26   ar
     3     2     6    1
     4     2    15    1
     5     3    24    1
     6     3    27    1
     7     4    16   ar
     8     4    20   ar
     9     5    17    1
    10     5    21    1
    11     5    28    1
    12     5    29    1
    13     6     8    1
    14     6     9    1
    15     6    10    1
    16     7     8    1
    17     7    11    1
    18     7    14    1
    19     7    16    1
    20     8    30    1
    21     8    31    1
    22     9    12    1
    23     9    32    1
    24     9    33    1
    25    10    13    1
    26    10    34    1
    27    10    35    1
    28    11    15    1
    29    11    36    1
    30    11    37    1
    31    12    13    1
    32    12    38    1
    33    12    39    1
    34    13    40    1
    35    13    41    1
    36    14    17    1
    37    14    42    1
    38    14    43    1
    39    15    44    1
    40    15    45    1
    41    16    18   ar
    42    17    46    1
    43    17    47    1
    44    18    19   ar
    45    18    48    1
    46    19    22   ar
    47    19    49    1
    48    20    22   ar
    49    20    50    1
    50    21    23    1
    51    21    51    1
    52    21    52    1
    53    22    53    1
    54    23    24   ar
    55    24    25   ar
    56    25    26   ar
    57    25    54    1
    58    26    55    1
    59    27    56    1
    60    27    57    1
    61    27    58    1
@<TRIPOS>MOLECULE
66553195
 58 61 0 0 0
SMALL
GASTEIGER

@<TRIPOS>ATOM
      1 S         117.5969  148.3789  148.8594 S.2     1  UNL1       -0.0926
      2 O         123.8371  155.0450  145.6841 O.3     1  UNL1       -0.3733
      3 O         121.2970  149.2937  149.4199 O.3     1  UNL1       -0.4941
      4 N         120.3856  151.4312  145.6788 N.ar    1  UNL1       -0.2593
      5 N         119.7046  151.5648  148.3689 N.4     1  UNL1        0.2308
      6 C         124.0762  154.3119  146.8831 C.3     1  UNL1        0.0704
      7 C         121.6006  153.3724  146.5682 C.3     1  UNL1        0.0224
      8 C         122.7580  153.8084  147.5220 C.3     1  UNL1       -0.0124
      9 C         124.7921  155.2732  147.8546 C.3     1  UNL1       -0.0237
     10 C         125.1852  153.2723  146.6727 C.3     1  UNL1       -0.0237
     11 C         121.6420  154.2182  145.2661 C.3     1  UNL1       -0.0181
     12 C         126.2279  155.3677  147.3440 C.3     1  UNL1       -0.0504
     13 C         126.4699  154.0905  146.5478 C.3     1  UNL1       -0.0504
     14 C         120.2273  153.7280  147.2638 C.3     1  UNL1       -0.0013
     15 C         123.0461  154.3667  144.7192 C.3     1  UNL1        0.0492
     16 C         121.5778  151.8868  146.1641 C.ar    1  UNL1        0.0478
     17 C         119.8726  153.0180  148.5723 C.3     1  UNL1       -0.0325
     18 C         122.6450  151.0113  146.3196 C.ar    1  UNL1       -0.0398
     19 C         122.5252  149.6876  145.8916 C.ar    1  UNL1       -0.0586
     20 C         120.3083  150.1561  145.2201 C.ar    1  UNL1        0.0279
     21 C         118.8008  150.8471  149.3023 C.3     1  UNL1        0.0021
     22 C         121.3428  149.2522  145.3150 C.ar    1  UNL1       -0.0436
     23 C         118.9572  149.3717  149.1515 C.ar    1  UNL1        0.0756
     24 C         120.1239  148.6355  149.2217 C.ar    1  UNL1        0.1353
     25 C         119.8922  147.2421  149.0391 C.ar    1  UNL1       -0.0124
     26 C         118.5569  146.9656  148.8365 C.ar    1  UNL1       -0.0203
     27 C         122.4171  148.4423  149.6573 C.3     1  UNL1        0.0788
     28 H         120.6193  151.0939  148.4273 H       1  UNL1        0.2017
     29 H         119.4102  151.3767  147.3920 H       1  UNL1        0.2017
     30 H         122.3731  154.6637  148.0973 H       1  UNL1        0.0302
     31 H         122.9639  153.0381  148.2759 H       1  UNL1        0.0302
     32 H         124.7965  154.8645  148.8730 H       1  UNL1        0.0293
     33 H         124.3282  156.2651  147.8834 H       1  UNL1        0.0293
     34 H         125.0600  152.6581  145.7780 H       1  UNL1        0.0293
     35 H         125.2689  152.6119  147.5444 H       1  UNL1        0.0293
     36 H         121.2705  155.2287  145.4859 H       1  UNL1        0.0296
     37 H         120.9841  153.8038  144.4924 H       1  UNL1        0.0296
     38 H         126.9355  155.4711  148.1730 H       1  UNL1        0.0266
     39 H         126.3515  156.2427  146.6959 H       1  UNL1        0.0266
     40 H         126.6645  154.3378  145.4977 H       1  UNL1        0.0266
     41 H         127.3358  153.5334  146.9195 H       1  UNL1        0.0266
     42 H         119.3999  153.5811  146.5546 H       1  UNL1        0.0326
     43 H         120.2177  154.8062  147.4792 H       1  UNL1        0.0326
     44 H         123.4915  153.4081  144.4381 H       1  UNL1        0.0560
     45 H         123.0244  154.9894  143.8188 H       1  UNL1        0.0560
     46 H         120.6340  153.1567  149.3454 H       1  UNL1        0.0814
     47 H         118.9189  153.4086  148.9440 H       1  UNL1        0.0814
     48 H         123.5837  151.3093  146.7600 H       1  UNL1        0.0636
     49 H         123.3675  149.0051  145.9856 H       1  UNL1        0.0619
     50 H         119.3603  149.8753  144.7669 H       1  UNL1        0.0829
     51 H         117.7844  151.1936  149.0889 H       1  UNL1        0.0873
     52 H         119.0758  151.1505  150.3187 H       1  UNL1        0.0873
     53 H         121.2367  148.2387  144.9422 H       1  UNL1        0.0633
     54 H         120.6447  146.4629  149.0497 H       1  UNL1        0.0659
     55 H         118.0990  145.9976  148.6750 H       1  UNL1        0.0694
     56 H         123.2826  149.0809  149.8589 H       1  UNL1        0.0660
     57 H         122.6457  147.8388  148.7728 H       1  UNL1        0.0660
     58 H         122.2540  147.8093  150.5361 H       1  UNL1        0.0660
@<TRIPOS>UNITY_ATOM_ATTR
5 1
charge 1
@<TRIPOS>BOND
     1     1    23   ar
     2     1    26   ar
     3     2     6    1
     4     2    15    1
     5     3    24    1
     6     3    27    1
     7     4    16   ar
     8     4    20   ar
     9     5    17    1
    10     5    21    1
    11     5    28    1
    12     5    29    1
    13     6     8    1
    14     6     9    1
    15     6    10    1
    16     7     8    1
    17     7    11    1
    18     7    14    1
    19     7    16    1
    20     8    30    1
    21     8    31    1
    22     9    12    1
    23     9    32    1
    24     9    33    1
    25    10    13    1
    26    10    34    1
    27    10    35    1
    28    11    15    1
    29    11    36    1
    30    11    37    1
    31    12    13    1
    32    12    38    1
    33    12    39    1
    34    13    40    1
    35    13    41    1
    36    14    17    1
    37    14    42    1
    38    14    43    1
    39    15    44    1
    40    15    45    1
    41    16    18   ar
    42    17    46    1
    43    17    47    1
    44    18    19   ar
    45    18    48    1
    46    19    22   ar
    47    19    49    1
    48    20    22   ar
    49    20    50    1
    50    21    23    1
    51    21    51    1
    52    21    52    1
    53    22    53    1
    54    23    24   ar
    55    24    25   ar
    56    25    26   ar
    57    25    54    1
    58    26    55    1
    59    27    56    1
    60    27    57    1
    61    27    58    1
@<TRIPOS>MOLECULE
66553195
 58 61 0 0 0
SMALL
GASTEIGER

@<TRIPOS>ATOM
      1 S         118.5310  148.3165  147.5371 S.2     1  UNL1       -0.0926
      2 O         123.9813  154.8824  145.6830 O.3     1  UNL1       -0.3733
      3 O         118.0498  149.7421  143.9835 O.3     1  UNL1       -0.4941
      4 N         121.5624  151.2365  145.4038 N.ar    1  UNL1       -0.2593
      5 N         118.9036  151.8300  145.6485 N.4     1  UNL1        0.2308
      6 C         123.9373  154.4059  147.0306 C.3     1  UNL1        0.0704
      7 C         121.5644  153.4320  146.5163 C.3     1  UNL1        0.0224
      8 C         122.4757  154.2477  147.4879 C.3     1  UNL1       -0.0124
      9 C         124.6630  155.4513  147.8953 C.3     1  UNL1       -0.0237
     10 C         124.8489  153.1896  147.2328 C.3     1  UNL1       -0.0237
     11 C         121.8042  154.0191  145.0965 C.3     1  UNL1       -0.0181
     12 C         126.1517  155.2012  147.6551 C.3     1  UNL1       -0.0504
     13 C         126.2621  153.7630  147.1564 C.3     1  UNL1       -0.0504
     14 C         120.0709  153.6592  146.9389 C.3     1  UNL1       -0.0013
     15 C         123.2827  154.0810  144.7408 C.3     1  UNL1        0.0492
     16 C         121.8368  151.9199  146.5513 C.ar    1  UNL1        0.0478
     17 C         118.9675  153.2764  145.9397 C.3     1  UNL1       -0.0325
     18 C         122.2217  151.2419  147.7067 C.ar    1  UNL1       -0.0398
     19 C         122.4518  149.8674  147.6523 C.ar    1  UNL1       -0.0586
     20 C         121.8545  149.9097  145.3621 C.ar    1  UNL1        0.0279
     21 C         118.3338  150.9472  146.7037 C.3     1  UNL1        0.0021
     22 C         122.2889  149.1893  146.4542 C.ar    1  UNL1       -0.0436
     23 C         118.3454  149.5057  146.3154 C.ar    1  UNL1        0.0756
     24 C         118.2076  148.9329  145.0652 C.ar    1  UNL1        0.1353
     25 C         118.2674  147.5089  145.1178 C.ar    1  UNL1       -0.0124
     26 C         118.4408  147.0447  146.4035 C.ar    1  UNL1       -0.0203
     27 C         117.9289  149.0503  142.7406 C.3     1  UNL1        0.0788
     28 H         119.8485  151.4757  145.4007 H       1  UNL1        0.2017
     29 H         118.3625  151.6499  144.7905 H       1  UNL1        0.2017
     30 H         122.0574  155.2644  147.5408 H       1  UNL1        0.0302
     31 H         122.4279  153.8681  148.5143 H       1  UNL1        0.0302
     32 H         124.4391  155.3010  148.9589 H       1  UNL1        0.0293
     33 H         124.3960  156.4797  147.6296 H       1  UNL1        0.0293
     34 H         124.7269  152.4016  146.4863 H       1  UNL1        0.0293
     35 H         124.6955  152.7518  148.2264 H       1  UNL1        0.0293
     36 H         121.4085  155.0440  145.0741 H       1  UNL1        0.0296
     37 H         121.2741  153.4614  144.3167 H       1  UNL1        0.0296
     38 H         126.7280  155.3567  148.5729 H       1  UNL1        0.0266
     39 H         126.5448  155.8915  146.9002 H       1  UNL1        0.0266
     40 H         126.6196  153.7558  146.1200 H       1  UNL1        0.0266
     41 H         126.9676  153.1748  147.7515 H       1  UNL1        0.0266
     42 H         119.9314  154.7325  147.1301 H       1  UNL1        0.0326
     43 H         119.8810  153.1697  147.9029 H       1  UNL1        0.0326
     44 H         123.7347  153.0879  144.6635 H       1  UNL1        0.0560
     45 H         123.3989  154.5572  143.7615 H       1  UNL1        0.0560
     46 H         117.9849  153.5707  146.3249 H       1  UNL1        0.0814
     47 H         119.1052  153.7838  144.9805 H       1  UNL1        0.0814
     48 H         122.3723  151.7485  148.6543 H       1  UNL1        0.0636
     49 H         122.7823  149.3324  148.5403 H       1  UNL1        0.0619
     50 H         121.7079  149.4256  144.3992 H       1  UNL1        0.0829
     51 H         117.3038  151.2799  146.8735 H       1  UNL1        0.0873
     52 H         118.9164  151.1182  147.6139 H       1  UNL1        0.0873
     53 H         122.4932  148.1263  146.3780 H       1  UNL1        0.0633
     54 H         118.1844  146.8351  144.2736 H       1  UNL1        0.0659
     55 H         118.5128  146.0151  146.7312 H       1  UNL1        0.0694
     56 H         117.8110  149.8001  141.9526 H       1  UNL1        0.0660
     57 H         117.0413  148.4091  142.7308 H       1  UNL1        0.0660
     58 H         118.8350  148.4749  142.5220 H       1  UNL1        0.0660
@<TRIPOS>UNITY_ATOM_ATTR
5 1
charge 1
@<TRIPOS>BOND
     1     1    23   ar
     2     1    26   ar
     3     2     6    1
     4     2    15    1
     5     3    24    1
     6     3    27    1
     7     4    16   ar
     8     4    20   ar
     9     5    17    1
    10     5    21    1
    11     5    28    1
    12     5    29    1
    13     6     8    1
    14     6     9    1
    15     6    10    1
    16     7     8    1
    17     7    11    1
    18     7    14    1
    19     7    16    1
    20     8    30    1
    21     8    31    1
    22     9    12    1
    23     9    32    1
    24     9    33    1
    25    10    13    1
    26    10    34    1
    27    10    35    1
    28    11    15    1
    29    11    36    1
    30    11    37    1
    31    12    13    1
    32    12    38    1
    33    12    39    1
    34    13    40    1
    35    13    41    1
    36    14    17    1
    37    14    42    1
    38    14    43    1
    39    15    44    1
    40    15    45    1
    41    16    18   ar
    42    17    46    1
    43    17    47    1
    44    18    19   ar
    45    18    48    1
    46    19    22   ar
    47    19    49    1
    48    20    22   ar
    49    20    50    1
    50    21    23    1
    51    21    51    1
    52    21    52    1
    53    22    53    1
    54    23    24   ar
    55    24    25   ar
    56    25    26   ar
    57    25    54    1
    58    26    55    1
    59    27    56    1
    60    27    57    1
    61    27    58    1
@<TRIPOS>MOLECULE
66553195
 58 61 0 0 0
SMALL
GASTEIGER

@<TRIPOS>ATOM
      1 S         118.8684  148.1367  148.5429 S.2     1  UNL1       -0.0926
      2 O         123.7958  155.1119  145.6507 O.3     1  UNL1       -0.3733
      3 O         116.2128  149.5910  146.1551 O.3     1  UNL1       -0.4941
      4 N         120.8849  151.2110  145.4517 N.ar    1  UNL1       -0.2593
      5 N         119.5176  151.2017  147.8936 N.4     1  UNL1        0.2308
      6 C         124.0322  154.4463  146.8906 C.3     1  UNL1        0.0704
      7 C         121.6827  153.2689  146.5161 C.3     1  UNL1        0.0224
      8 C         122.7162  153.9058  147.4999 C.3     1  UNL1       -0.0124
      9 C         124.6626  155.4893  147.8355 C.3     1  UNL1       -0.0237
     10 C         125.1977  153.4569  146.7675 C.3     1  UNL1       -0.0237
     11 C         121.6913  154.0825  145.1916 C.3     1  UNL1       -0.0181
     12 C         126.1161  155.6218  147.3806 C.3     1  UNL1       -0.0504
     13 C         126.4322  154.3428  146.6119 C.3     1  UNL1       -0.0504
     14 C         120.2335  153.4470  147.1168 C.3     1  UNL1       -0.0013
     15 C         123.0950  154.3422  144.6847 C.3     1  UNL1        0.0492
     16 C         121.8865  151.7824  146.1831 C.ar    1  UNL1        0.0478
     17 C         119.8783  152.5788  148.3234 C.3     1  UNL1       -0.0325
     18 C         122.9345  151.0017  146.6546 C.ar    1  UNL1       -0.0398
     19 C         123.0246  149.6609  146.2745 C.ar    1  UNL1       -0.0586
     20 C         121.0254  149.9242  145.0409 C.ar    1  UNL1        0.0279
     21 C         118.1083  150.7739  148.1033 C.3     1  UNL1        0.0021
     22 C         122.0673  149.1142  145.4343 C.ar    1  UNL1       -0.0436
     23 C         117.9228  149.3347  147.7564 C.ar    1  UNL1        0.0756
     24 C         117.0394  148.7755  146.8567 C.ar    1  UNL1        0.1353
     25 C         117.1514  147.3548  146.8056 C.ar    1  UNL1       -0.0124
     26 C         118.1095  146.8786  147.6746 C.ar    1  UNL1       -0.0203
     27 C         115.2282  148.9153  145.3763 C.3     1  UNL1        0.0788
     28 H         120.1343  150.5117  148.3393 H       1  UNL1        0.2017
     29 H         119.7185  151.0882  146.8801 H       1  UNL1        0.2017
     30 H         122.2203  154.7817  147.9440 H       1  UNL1        0.0302
     31 H         122.9265  153.2440  148.3486 H       1  UNL1        0.0302
     32 H         124.6403  155.1366  148.8744 H       1  UNL1        0.0293
     33 H         124.1556  156.4592  147.7911 H       1  UNL1        0.0293
     34 H         125.1214  152.7748  145.9178 H       1  UNL1        0.0293
     35 H         125.3044  152.8658  147.6849 H       1  UNL1        0.0293
     36 H         121.2210  155.0589  145.3754 H       1  UNL1        0.0296
     37 H         121.1008  153.5934  144.4077 H       1  UNL1        0.0296
     38 H         126.7833  155.7536  148.2388 H       1  UNL1        0.0266
     39 H         126.2431  156.4939  146.7294 H       1  UNL1        0.0266
     40 H         126.6021  154.5767  145.5544 H       1  UNL1        0.0266
     41 H         127.3333  153.8488  146.9884 H       1  UNL1        0.0266
     42 H         119.4782  153.2903  146.3330 H       1  UNL1        0.0326
     43 H         120.1106  154.4965  147.4184 H       1  UNL1        0.0326
     44 H         123.6315  153.4197  144.4443 H       1  UNL1        0.0560
     45 H         123.0482  154.9365  143.7664 H       1  UNL1        0.0560
     46 H         120.7074  152.4923  149.0318 H       1  UNL1        0.0814
     47 H         119.0168  152.9995  148.8527 H       1  UNL1        0.0814
     48 H         123.7031  151.3878  147.3094 H       1  UNL1        0.0636
     49 H         123.8613  149.0527  146.6138 H       1  UNL1        0.0619
     50 H         120.2458  149.5532  144.3793 H       1  UNL1        0.0829
     51 H         117.4866  151.4306  147.4862 H       1  UNL1        0.0873
     52 H         117.8667  150.9458  149.1581 H       1  UNL1        0.0873
     53 H         122.1383  148.0865  145.0930 H       1  UNL1        0.0633
     54 H         116.5672  146.6936  146.1771 H       1  UNL1        0.0659
     55 H         118.3930  145.8473  147.8433 H       1  UNL1        0.0694
     56 H         114.5950  149.6737  144.9061 H       1  UNL1        0.0660
     57 H         114.5880  148.2878  146.0061 H       1  UNL1        0.0660
     58 H         115.6940  148.3262  144.5793 H       1  UNL1        0.0660
@<TRIPOS>UNITY_ATOM_ATTR
5 1
charge 1
@<TRIPOS>BOND
     1     1    23   ar
     2     1    26   ar
     3     2     6    1
     4     2    15    1
     5     3    24    1
     6     3    27    1
     7     4    16   ar
     8     4    20   ar
     9     5    17    1
    10     5    21    1
    11     5    28    1
    12     5    29    1
    13     6     8    1
    14     6     9    1
    15     6    10    1
    16     7     8    1
    17     7    11    1
    18     7    14    1
    19     7    16    1
    20     8    30    1
    21     8    31    1
    22     9    12    1
    23     9    32    1
    24     9    33    1
    25    10    13    1
    26    10    34    1
    27    10    35    1
    28    11    15    1
    29    11    36    1
    30    11    37    1
    31    12    13    1
    32    12    38    1
    33    12    39    1
    34    13    40    1
    35    13    41    1
    36    14    17    1
    37    14    42    1
    38    14    43    1
    39    15    44    1
    40    15    45    1
    41    16    18   ar
    42    17    46    1
    43    17    47    1
    44    18    19   ar
    45    18    48    1
    46    19    22   ar
    47    19    49    1
    48    20    22   ar
    49    20    50    1
    50    21    23    1
    51    21    51    1
    52    21    52    1
    53    22    53    1
    54    23    24   ar
    55    24    25   ar
    56    25    26   ar
    57    25    54    1
    58    26    55    1
    59    27    56    1
    60    27    57    1
    61    27    58    1
@<TRIPOS>MOLECULE
66553195
 58 61 0 0 0
SMALL
GASTEIGER

@<TRIPOS>ATOM
      1 S         115.6252  150.7833  146.6488 S.2     1  UNL1       -0.0926
      2 O         123.8655  154.9664  145.6784 O.3     1  UNL1       -0.3733
      3 O         116.7773  151.8770  143.1381 O.3     1  UNL1       -0.4941
      4 N         121.2390  151.6287  144.7648 N.ar    1  UNL1       -0.2593
      5 N         117.5180  153.5688  146.5566 N.4     1  UNL1        0.2308
      6 C         123.8511  154.2135  146.8944 C.3     1  UNL1        0.0704
      7 C         121.4051  153.5076  146.3305 C.3     1  UNL1        0.0224
      8 C         122.4068  154.0437  147.3965 C.3     1  UNL1       -0.0124
      9 C         124.6880  155.0040  147.9144 C.3     1  UNL1       -0.0237
     10 C         124.6796  152.9281  146.7820 C.3     1  UNL1       -0.0237
     11 C         121.6090  154.3758  145.0565 C.3     1  UNL1       -0.0181
     12 C         126.1407  154.7290  147.5283 C.3     1  UNL1       -0.0504
     13 C         126.1277  153.4136  146.7539 C.3     1  UNL1       -0.0504
     14 C         119.9535  153.7115  146.8730 C.3     1  UNL1       -0.0013
     15 C         123.0694  154.4264  144.6312 C.3     1  UNL1        0.0492
     16 C         121.5581  152.0121  146.0267 C.ar    1  UNL1        0.0478
     17 C         118.8417  153.2905  145.9050 C.3     1  UNL1       -0.0325
     18 C         121.8773  151.0701  147.0050 C.ar    1  UNL1       -0.0398
     19 C         121.9451  149.7211  146.6600 C.ar    1  UNL1       -0.0586
     20 C         121.3310  150.3156  144.4496 C.ar    1  UNL1        0.0279
     21 C         116.3294  153.2912  145.6874 C.3     1  UNL1        0.0021
     22 C         121.6769  149.3337  145.3558 C.ar    1  UNL1       -0.0436
     23 C         116.1439  151.8413  145.4051 C.ar    1  UNL1        0.0756
     24 C         116.3459  151.1737  144.2150 C.ar    1  UNL1        0.1353
     25 C         116.0670  149.7807  144.3277 C.ar    1  UNL1       -0.0124
     26 C         115.6626  149.4358  145.5997 C.ar    1  UNL1       -0.0203
     27 C         116.8481  151.1296  141.9265 C.3     1  UNL1        0.0788
     28 H         117.4752  154.5494  146.8547 H       1  UNL1        0.2017
     29 H         117.4249  152.9913  147.4015 H       1  UNL1        0.2017
     30 H         122.0555  155.0447  147.6903 H       1  UNL1        0.0302
     31 H         122.3849  153.4518  148.3180 H       1  UNL1        0.0302
     32 H         124.5093  154.6390  148.9335 H       1  UNL1        0.0293
     33 H         124.4788  156.0789  147.8919 H       1  UNL1        0.0293
     34 H         124.4698  152.3289  145.8932 H       1  UNL1        0.0293
     35 H         124.5325  152.2954  147.6657 H       1  UNL1        0.0293
     36 H         121.2855  155.4020  145.2794 H       1  UNL1        0.0296
     37 H         121.0009  154.0352  144.2115 H       1  UNL1        0.0296
     38 H         126.7798  154.6722  148.4154 H       1  UNL1        0.0266
     39 H         126.5313  155.5329  146.8939 H       1  UNL1        0.0266
     40 H         126.4511  153.5875  145.7210 H       1  UNL1        0.0266
     41 H         126.8066  152.6745  147.1908 H       1  UNL1        0.0266
     42 H         119.8112  154.7705  147.1287 H       1  UNL1        0.0326
     43 H         119.8338  153.1553  147.8134 H       1  UNL1        0.0326
     44 H         123.4487  153.4491  144.3191 H       1  UNL1        0.0560
     45 H         123.1722  155.0944  143.7696 H       1  UNL1        0.0560
     46 H         118.8638  153.8684  144.9774 H       1  UNL1        0.0814
     47 H         118.8657  152.2201  145.6917 H       1  UNL1        0.0814
     48 H         122.0849  151.3499  148.0320 H       1  UNL1        0.0636
     49 H         122.2164  148.9773  147.4056 H       1  UNL1        0.0619
     50 H         121.1115  150.0676  143.4145 H       1  UNL1        0.0829
     51 H         116.4534  153.8862  144.7765 H       1  UNL1        0.0873
     52 H         115.4633  153.6932  146.2255 H       1  UNL1        0.0873
     53 H         121.7389  148.2934  145.0548 H       1  UNL1        0.0633
     54 H         116.1503  149.0492  143.5329 H       1  UNL1        0.0659
     55 H         115.3860  148.4529  145.9605 H       1  UNL1        0.0694
     56 H         117.1621  151.8123  141.1311 H       1  UNL1        0.0660
     57 H         115.8675  150.7250  141.6534 H       1  UNL1        0.0660
     58 H         117.5962  150.3333  141.9999 H       1  UNL1        0.0660
@<TRIPOS>UNITY_ATOM_ATTR
5 1
charge 1
@<TRIPOS>BOND
     1     1    23   ar
     2     1    26   ar
     3     2     6    1
     4     2    15    1
     5     3    24    1
     6     3    27    1
     7     4    16   ar
     8     4    20   ar
     9     5    17    1
    10     5    21    1
    11     5    28    1
    12     5    29    1
    13     6     8    1
    14     6     9    1
    15     6    10    1
    16     7     8    1
    17     7    11    1
    18     7    14    1
    19     7    16    1
    20     8    30    1
    21     8    31    1
    22     9    12    1
    23     9    32    1
    24     9    33    1
    25    10    13    1
    26    10    34    1
    27    10    35    1
    28    11    15    1
    29    11    36    1
    30    11    37    1
    31    12    13    1
    32    12    38    1
    33    12    39    1
    34    13    40    1
    35    13    41    1
    36    14    17    1
    37    14    42    1
    38    14    43    1
    39    15    44    1
    40    15    45    1
    41    16    18   ar
    42    17    46    1
    43    17    47    1
    44    18    19   ar
    45    18    48    1
    46    19    22   ar
    47    19    49    1
    48    20    22   ar
    49    20    50    1
    50    21    23    1
    51    21    51    1
    52    21    52    1
    53    22    53    1
    54    23    24   ar
    55    24    25   ar
    56    25    26   ar
    57    25    54    1
    58    26    55    1
    59    27    56    1
    60    27    57    1
    61    27    58    1
@<TRIPOS>MOLECULE
66553195
 58 61 0 0 0
SMALL
GASTEIGER

@<TRIPOS>ATOM
      1 S         115.4345  150.7541  146.1944 S.2     1  UNL1       -0.0926
      2 O         123.9757  154.8281  145.6766 O.3     1  UNL1       -0.3733
      3 O         117.5445  152.0393  143.2390 O.3     1  UNL1       -0.4941
      4 N         121.3960  151.3142  145.2192 N.ar    1  UNL1       -0.2593
      5 N         117.6543  153.4315  146.6490 N.4     1  UNL1        0.2308
      6 C         123.9679  154.2593  146.9888 C.3     1  UNL1        0.0704
      7 C         121.5507  153.3978  146.5033 C.3     1  UNL1        0.0224
      8 C         122.5233  154.1040  147.4955 C.3     1  UNL1       -0.0124
      9 C         124.7548  155.2247  147.8916 C.3     1  UNL1       -0.0237
     10 C         124.8502  153.0084  147.0738 C.3     1  UNL1       -0.0237
     11 C         121.7512  154.0843  145.1222 C.3     1  UNL1       -0.0181
     12 C         126.2227  154.9635  147.5582 C.3     1  UNL1       -0.0504
     13 C         126.2778  153.5471  146.9911 C.3     1  UNL1       -0.0504
     14 C         120.0868  153.6351  147.0025 C.3     1  UNL1       -0.0013
     15 C         123.2153  154.1138  144.7113 C.3     1  UNL1        0.0492
     16 C         121.7410  151.8782  146.4050 C.ar    1  UNL1        0.0478
     17 C         118.9980  153.1471  146.0414 C.3     1  UNL1       -0.0325
     18 C         122.1226  151.0895  147.4906 C.ar    1  UNL1       -0.0398
     19 C         122.2227  149.7079  147.3324 C.ar    1  UNL1       -0.0586
     20 C         121.5162  149.9723  145.0864 C.ar    1  UNL1        0.0279
     21 C         116.5020  153.2698  145.7034 C.3     1  UNL1        0.0021
     22 C         121.9224  149.1354  146.1059 C.ar    1  UNL1       -0.0436
     23 C         116.3177  151.8673  145.2403 C.ar    1  UNL1        0.0756
     24 C         116.7949  151.2862  144.0833 C.ar    1  UNL1        0.1353
     25 C         116.4099  149.9191  143.9713 C.ar    1  UNL1       -0.0124
     26 C         115.6613  149.5041  145.0521 C.ar    1  UNL1       -0.0203
     27 C         118.0250  151.3493  142.0884 C.3     1  UNL1        0.0788
     28 H         117.6296  154.3889  147.0160 H       1  UNL1        0.2017
     29 H         117.5018  152.7985  147.4438 H       1  UNL1        0.2017
     30 H         122.1362  155.1229  147.6493 H       1  UNL1        0.0302
     31 H         122.5078  153.6418  148.4885 H       1  UNL1        0.0302
     32 H         124.5781  155.0013  148.9510 H       1  UNL1        0.0293
     33 H         124.4989  156.2747  147.7133 H       1  UNL1        0.0293
     34 H         124.6796  152.2782  146.2796 H       1  UNL1        0.0293
     35 H         124.7148  152.5051  148.0387 H       1  UNL1        0.0293
     36 H         121.3970  155.1219  145.1949 H       1  UNL1        0.0296
     37 H         121.1673  153.6106  144.3256 H       1  UNL1        0.0296
     38 H         126.8540  155.0718  148.4460 H       1  UNL1        0.0266
     39 H         126.5825  155.6799  146.8107 H       1  UNL1        0.0266
     40 H         126.6140  153.5776  145.9480 H       1  UNL1        0.0266
     41 H         126.9779  152.9123  147.5434 H       1  UNL1        0.0266
     42 H         119.9361  154.7099  147.1733 H       1  UNL1        0.0326
     43 H         119.9480  153.1509  147.9792 H       1  UNL1        0.0326
     44 H         123.6265  153.1124  144.5541 H       1  UNL1        0.0560
     45 H         123.3139  154.6486  143.7608 H       1  UNL1        0.0560
     46 H         119.0346  153.6844  145.0902 H       1  UNL1        0.0814
     47 H         119.0401  152.0689  145.8796 H       1  UNL1        0.0814
     48 H         122.3549  151.5129  148.4614 H       1  UNL1        0.0636
     49 H         122.5428  149.0827  148.1629 H       1  UNL1        0.0619
     50 H         121.2679  149.5760  144.1055 H       1  UNL1        0.0829
     51 H         116.6723  153.9607  144.8703 H       1  UNL1        0.0873
     52 H         115.6189  153.6272  146.2450 H       1  UNL1        0.0873
     53 H         122.0051  148.0650  145.9502 H       1  UNL1        0.0633
     54 H         116.6544  149.2543  143.1518 H       1  UNL1        0.0659
     55 H         115.2372  148.5226  145.2237 H       1  UNL1        0.0694
     56 H         118.6170  152.0560  141.4990 H       1  UNL1        0.0660
     57 H         117.1963  151.0014  141.4627 H       1  UNL1        0.0660
     58 H         118.6805  150.5192  142.3727 H       1  UNL1        0.0660
@<TRIPOS>UNITY_ATOM_ATTR
5 1
charge 1
@<TRIPOS>BOND
     1     1    23   ar
     2     1    26   ar
     3     2     6    1
     4     2    15    1
     5     3    24    1
     6     3    27    1
     7     4    16   ar
     8     4    20   ar
     9     5    17    1
    10     5    21    1
    11     5    28    1
    12     5    29    1
    13     6     8    1
    14     6     9    1
    15     6    10    1
    16     7     8    1
    17     7    11    1
    18     7    14    1
    19     7    16    1
    20     8    30    1
    21     8    31    1
    22     9    12    1
    23     9    32    1
    24     9    33    1
    25    10    13    1
    26    10    34    1
    27    10    35    1
    28    11    15    1
    29    11    36    1
    30    11    37    1
    31    12    13    1
    32    12    38    1
    33    12    39    1
    34    13    40    1
    35    13    41    1
    36    14    17    1
    37    14    42    1
    38    14    43    1
    39    15    44    1
    40    15    45    1
    41    16    18   ar
    42    17    46    1
    43    17    47    1
    44    18    19   ar
    45    18    48    1
    46    19    22   ar
    47    19    49    1
    48    20    22   ar
    49    20    50    1
    50    21    23    1
    51    21    51    1
    52    21    52    1
    53    22    53    1
    54    23    24   ar
    55    24    25   ar
    56    25    26   ar
    57    25    54    1
    58    26    55    1
    59    27    56    1
    60    27    57    1
    61    27    58    1
@<TRIPOS>MOLECULE
66553195
 58 61 0 0 0
SMALL
GASTEIGER

@<TRIPOS>ATOM
      1 S         118.4025  159.5778  146.8521 S.2     1  UNL1       -0.0926
      2 O         124.2955  154.7419  145.9108 O.3     1  UNL1       -0.3733
      3 O         117.8431  156.4593  144.6485 O.3     1  UNL1       -0.4941
      4 N         121.5356  151.4048  147.3179 N.ar    1  UNL1       -0.2593
      5 N         118.3625  155.5732  147.2572 N.4     1  UNL1        0.2308
      6 C         124.0686  153.9990  147.1156 C.3     1  UNL1        0.0704
      7 C         121.6185  153.6435  146.3345 C.3     1  UNL1        0.0224
      8 C         122.5779  154.0644  147.4867 C.3     1  UNL1       -0.0124
      9 C         124.9262  154.6584  148.2086 C.3     1  UNL1       -0.0237
     10 C         124.6957  152.6009  147.0646 C.3     1  UNL1       -0.0237
     11 C         122.0483  154.4358  145.0721 C.3     1  UNL1       -0.0181
     12 C         126.3471  154.1664  147.9393 C.3     1  UNL1       -0.0504
     13 C         126.1982  152.8561  147.1707 C.3     1  UNL1       -0.0504
     14 C         120.1290  153.9767  146.6850 C.3     1  UNL1       -0.0013
     15 C         123.5403  154.3080  144.7877 C.3     1  UNL1        0.0492
     16 C         121.6316  152.1142  146.1631 C.ar    1  UNL1        0.0478
     17 C         119.8462  155.3941  147.1745 C.3     1  UNL1       -0.0325
     18 C         121.6570  151.4710  144.9257 C.ar    1  UNL1       -0.0398
     19 C         121.6342  150.0772  144.8785 C.ar    1  UNL1       -0.0586
     20 C         121.5247  150.0538  147.2454 C.ar    1  UNL1        0.0279
     21 C         117.9068  156.9573  147.5935 C.3     1  UNL1        0.0021
     22 C         121.5730  149.3514  146.0585 C.ar    1  UNL1       -0.0436
     23 C         118.1023  157.9325  146.4788 C.ar    1  UNL1        0.0756
     24 C         118.0624  157.7198  145.1126 C.ar    1  UNL1        0.1353
     25 C         118.2850  158.9197  144.3758 C.ar    1  UNL1       -0.0124
     26 C         118.4826  160.0048  145.2017 C.ar    1  UNL1       -0.0203
     27 C         117.8398  156.3464  143.2249 C.3     1  UNL1        0.0788
     28 H         117.9621  154.9076  147.9284 H       1  UNL1        0.2017
     29 H         117.9466  155.3550  146.3378 H       1  UNL1        0.2017
     30 H         122.3727  155.1150  147.7309 H       1  UNL1        0.0302
     31 H         122.3826  153.5000  148.4069 H       1  UNL1        0.0302
     32 H         124.6108  154.3270  149.2058 H       1  UNL1        0.0293
     33 H         124.8836  155.7524  148.1790 H       1  UNL1        0.0293
     34 H         124.4805  152.0369  146.1548 H       1  UNL1        0.0293
     35 H         124.3703  152.0012  147.9234 H       1  UNL1        0.0293
     36 H         121.8518  155.5022  145.2364 H       1  UNL1        0.0296
     37 H         121.4632  154.1560  144.1895 H       1  UNL1        0.0296
     38 H         126.9014  154.0299  148.8734 H       1  UNL1        0.0266
     39 H         126.8992  154.8943  147.3337 H       1  UNL1        0.0266
     40 H         126.6385  152.9598  146.1720 H       1  UNL1        0.0266
     41 H         126.7100  152.0277  147.6706 H       1  UNL1        0.0266
     42 H         119.7644  153.2916  147.4637 H       1  UNL1        0.0326
     43 H         119.5112  153.7691  145.7989 H       1  UNL1        0.0326
     44 H         123.8311  153.2956  144.4962 H       1  UNL1        0.0560
     45 H         123.8031  154.9612  143.9487 H       1  UNL1        0.0560
     46 H         120.2360  155.5653  148.1821 H       1  UNL1        0.0814
     47 H         120.2312  156.1522  146.4906 H       1  UNL1        0.0814
     48 H         121.7014  152.0106  143.9873 H       1  UNL1        0.0636
     49 H         121.6691  149.5602  143.9225 H       1  UNL1        0.0619
     50 H         121.4748  149.5361  148.1995 H       1  UNL1        0.0829
     51 H         118.4302  157.2471  148.5110 H       1  UNL1        0.0873
     52 H         116.8380  156.8720  147.8190 H       1  UNL1        0.0873
     53 H         121.5629  148.2669  146.0522 H       1  UNL1        0.0633
     54 H         118.3027  159.0131  143.2965 H       1  UNL1        0.0659
     55 H         118.6689  161.0316  144.9117 H       1  UNL1        0.0694
     56 H         117.6613  155.2959  142.9761 H       1  UNL1        0.0660
     57 H         118.8125  156.6276  142.8069 H       1  UNL1        0.0660
     58 H         117.0321  156.9394  142.7837 H       1  UNL1        0.0660
@<TRIPOS>UNITY_ATOM_ATTR
5 1
charge 1
@<TRIPOS>BOND
     1     1    23   ar
     2     1    26   ar
     3     2     6    1
     4     2    15    1
     5     3    24    1
     6     3    27    1
     7     4    16   ar
     8     4    20   ar
     9     5    17    1
    10     5    21    1
    11     5    28    1
    12     5    29    1
    13     6     8    1
    14     6     9    1
    15     6    10    1
    16     7     8    1
    17     7    11    1
    18     7    14    1
    19     7    16    1
    20     8    30    1
    21     8    31    1
    22     9    12    1
    23     9    32    1
    24     9    33    1
    25    10    13    1
    26    10    34    1
    27    10    35    1
    28    11    15    1
    29    11    36    1
    30    11    37    1
    31    12    13    1
    32    12    38    1
    33    12    39    1
    34    13    40    1
    35    13    41    1
    36    14    17    1
    37    14    42    1
    38    14    43    1
    39    15    44    1
    40    15    45    1
    41    16    18   ar
    42    17    46    1
    43    17    47    1
    44    18    19   ar
    45    18    48    1
    46    19    22   ar
    47    19    49    1
    48    20    22   ar
    49    20    50    1
    50    21    23    1
    51    21    51    1
    52    21    52    1
    53    22    53    1
    54    23    24   ar
    55    24    25   ar
    56    25    26   ar
    57    25    54    1
    58    26    55    1
    59    27    56    1
    60    27    57    1
    61    27    58    1
@<TRIPOS>MOLECULE
66553195
 58 61 0 0 0
SMALL
GASTEIGER

@<TRIPOS>ATOM
      1 S         118.3549  159.5673  146.6530 S.2     1  UNL1       -0.0926
      2 O         124.1782  154.7488  145.8339 O.3     1  UNL1       -0.3733
      3 O         117.8241  156.2734  144.7155 O.3     1  UNL1       -0.4941
      4 N         121.2397  151.7492  144.9704 N.ar    1  UNL1       -0.2593
      5 N         118.3121  155.6092  147.3903 N.4     1  UNL1        0.2308
      6 C         124.0527  154.0558  147.0800 C.3     1  UNL1        0.0704
      7 C         121.5495  153.6530  146.4987 C.3     1  UNL1        0.0224
      8 C         122.5899  154.0967  147.5637 C.3     1  UNL1       -0.0124
      9 C         124.9702  154.7796  148.0805 C.3     1  UNL1       -0.0237
     10 C         124.7150  152.6737  147.0373 C.3     1  UNL1       -0.0237
     11 C         121.8820  154.4302  145.1907 C.3     1  UNL1       -0.0181
     12 C         126.3814  154.3110  147.7287 C.3     1  UNL1       -0.0504
     13 C         126.2128  152.9738  147.0122 C.3     1  UNL1       -0.0504
     14 C         120.0867  153.9784  146.9440 C.3     1  UNL1       -0.0013
     15 C         123.3402  154.2601  144.7909 C.3     1  UNL1        0.0492
     16 C         121.5376  152.1347  146.2359 C.ar    1  UNL1        0.0478
     17 C         119.7966  155.4285  147.3248 C.3     1  UNL1       -0.0325
     18 C         121.7094  151.1934  147.2528 C.ar    1  UNL1       -0.0398
     19 C         121.6384  149.8349  146.9476 C.ar    1  UNL1       -0.0586
     20 C         121.1850  150.4252  144.6972 C.ar    1  UNL1        0.0279
     21 C         117.8500  157.0164  147.6045 C.3     1  UNL1        0.0021
     22 C         121.3784  149.4394  145.6441 C.ar    1  UNL1       -0.0436
     23 C         118.0586  157.8965  146.4158 C.ar    1  UNL1        0.0756
     24 C         118.0385  157.5689  145.0723 C.ar    1  UNL1        0.1353
     25 C         118.2725  158.7016  144.2395 C.ar    1  UNL1       -0.0124
     26 C         118.4598  159.8528  144.9734 C.ar    1  UNL1       -0.0203
     27 C         117.9003  156.0262  143.3108 C.3     1  UNL1        0.0788
     28 H         117.9006  154.9977  148.1036 H       1  UNL1        0.2017
     29 H         117.9072  155.3209  146.4839 H       1  UNL1        0.2017
     30 H         122.3804  155.1463  147.8116 H       1  UNL1        0.0302
     31 H         122.4762  153.5483  148.5050 H       1  UNL1        0.0302
     32 H         124.7362  154.4828  149.1105 H       1  UNL1        0.0293
     33 H         124.8964  155.8701  148.0107 H       1  UNL1        0.0293
     34 H         124.4437  152.0656  146.1715 H       1  UNL1        0.0293
     35 H         124.4795  152.1046  147.9447 H       1  UNL1        0.0293
     36 H         121.7240  155.5025  145.3515 H       1  UNL1        0.0296
     37 H         121.2251  154.1448  144.3608 H       1  UNL1        0.0296
     38 H         127.0003  154.2162  148.6267 H       1  UNL1        0.0266
     39 H         126.8739  155.0314  147.0655 H       1  UNL1        0.0266
     40 H         126.5666  153.0596  145.9781 H       1  UNL1        0.0266
     41 H         126.7892  152.1765  147.4916 H       1  UNL1        0.0266
     42 H         119.8141  153.3483  147.8028 H       1  UNL1        0.0326
     43 H         119.4058  153.6820  146.1323 H       1  UNL1        0.0326
     44 H         123.5953  153.2282  144.5353 H       1  UNL1        0.0560
     45 H         123.5447  154.8657  143.9017 H       1  UNL1        0.0560
     46 H         120.1901  155.6742  148.3158 H       1  UNL1        0.0814
     47 H         120.1756  156.1395  146.5906 H       1  UNL1        0.0814
     48 H         121.9009  151.4810  148.2801 H       1  UNL1        0.0636
     49 H         121.7882  149.0887  147.7239 H       1  UNL1        0.0619
     50 H         120.9733  150.1716  143.6619 H       1  UNL1        0.0829
     51 H         118.3620  157.3818  148.5012 H       1  UNL1        0.0873
     52 H         116.7787  156.9475  147.8233 H       1  UNL1        0.0873
     53 H         121.3250  148.3903  145.3742 H       1  UNL1        0.0633
     54 H         118.3055  158.7023  143.1565 H       1  UNL1        0.0659
     55 H         118.6521  160.8510  144.5999 H       1  UNL1        0.0694
     56 H         117.7356  154.9561  143.1529 H       1  UNL1        0.0660
     57 H         118.8943  156.2725  142.9220 H       1  UNL1        0.0660
     58 H         117.1178  156.5708  142.7722 H       1  UNL1        0.0660
@<TRIPOS>UNITY_ATOM_ATTR
5 1
charge 1
@<TRIPOS>BOND
     1     1    23   ar
     2     1    26   ar
     3     2     6    1
     4     2    15    1
     5     3    24    1
     6     3    27    1
     7     4    16   ar
     8     4    20   ar
     9     5    17    1
    10     5    21    1
    11     5    28    1
    12     5    29    1
    13     6     8    1
    14     6     9    1
    15     6    10    1
    16     7     8    1
    17     7    11    1
    18     7    14    1
    19     7    16    1
    20     8    30    1
    21     8    31    1
    22     9    12    1
    23     9    32    1
    24     9    33    1
    25    10    13    1
    26    10    34    1
    27    10    35    1
    28    11    15    1
    29    11    36    1
    30    11    37    1
    31    12    13    1
    32    12    38    1
    33    12    39    1
    34    13    40    1
    35    13    41    1
    36    14    17    1
    37    14    42    1
    38    14    43    1
    39    15    44    1
    40    15    45    1
    41    16    18   ar
    42    17    46    1
    43    17    47    1
    44    18    19   ar
    45    18    48    1
    46    19    22   ar
    47    19    49    1
    48    20    22   ar
    49    20    50    1
    50    21    23    1
    51    21    51    1
    52    21    52    1
    53    22    53    1
    54    23    24   ar
    55    24    25   ar
    56    25    26   ar
    57    25    54    1
    58    26    55    1
    59    27    56    1
    60    27    57    1
    61    27    58    1
@<TRIPOS>MOLECULE
66553195
 58 61 0 0 0
SMALL
GASTEIGER

@<TRIPOS>ATOM
      1 S         116.8913  153.8473  142.5895 S.2     1  UNL1       -0.0926
      2 O         123.9077  154.7344  145.7720 O.3     1  UNL1       -0.3733
      3 O         119.4304  150.9700  142.2355 O.3     1  UNL1       -0.4941
      4 N         121.2684  151.3117  145.1279 N.ar    1  UNL1       -0.2593
      5 N         118.7040  152.1161  145.3271 N.4     1  UNL1        0.2308
      6 C         123.8137  154.1311  147.0653 C.3     1  UNL1        0.0704
      7 C         121.3849  153.3880  146.4490 C.3     1  UNL1        0.0224
      8 C         122.3397  154.0385  147.4994 C.3     1  UNL1       -0.0124
      9 C         124.6069  155.0272  148.0320 C.3     1  UNL1       -0.0237
     10 C         124.6283  152.8346  147.1477 C.3     1  UNL1       -0.0237
     11 C         121.6801  154.0931  145.0949 C.3     1  UNL1       -0.0181
     12 C         126.0750  154.6892  147.7725 C.3     1  UNL1       -0.0504
     13 C         126.0813  153.3042  147.1311 C.3     1  UNL1       -0.0504
     14 C         119.9061  153.6662  146.8857 C.3     1  UNL1       -0.0013
     15 C         123.1626  154.0849  144.7519 C.3     1  UNL1        0.0492
     16 C         121.5460  151.8627  146.3424 C.ar    1  UNL1        0.0478
     17 C         118.8041  153.5070  145.8285 C.3     1  UNL1       -0.0325
     18 C         121.8351  151.0550  147.4422 C.ar    1  UNL1       -0.0398
     19 C         121.9584  149.6771  147.2698 C.ar    1  UNL1       -0.0586
     20 C         121.4495  149.9741  144.9767 C.ar    1  UNL1        0.0279
     21 C         117.5926  151.8352  144.3745 C.3     1  UNL1        0.0021
     22 C         121.7834  149.1247  146.0107 C.ar    1  UNL1       -0.0436
     23 C         117.7941  152.4629  143.0390 C.ar    1  UNL1        0.0756
     24 C         118.6491  152.0614  142.0331 C.ar    1  UNL1        0.1353
     25 C         118.5721  152.9118  140.8918 C.ar    1  UNL1       -0.0124
     26 C         117.6529  153.9245  141.0632 C.ar    1  UNL1       -0.0203
     27 C         120.1849  150.5627  141.0959 C.3     1  UNL1        0.0788
     28 H         118.6494  151.4543  146.1080 H       1  UNL1        0.2017
     29 H         119.5939  151.8549  144.8509 H       1  UNL1        0.2017
     30 H         121.9955  155.0735  147.6473 H       1  UNL1        0.0302
     31 H         122.2534  153.5675  148.4845 H       1  UNL1        0.0302
     32 H         124.3611  154.7900  149.0746 H       1  UNL1        0.0293
     33 H         124.4214  156.0943  147.8692 H       1  UNL1        0.0293
     34 H         124.4541  152.1359  146.3263 H       1  UNL1        0.0293
     35 H         124.4321  152.3135  148.0924 H       1  UNL1        0.0293
     36 H         121.3576  155.1407  145.1734 H       1  UNL1        0.0296
     37 H         121.1209  153.6548  144.2611 H       1  UNL1        0.0296
     38 H         126.6513  154.7067  148.7033 H       1  UNL1        0.0266
     39 H         126.5278  155.4198  147.0928 H       1  UNL1        0.0266
     40 H         126.4460  153.3747  146.0995 H       1  UNL1        0.0266
     41 H         126.7357  152.6074  147.6642 H       1  UNL1        0.0266
     42 H         119.8362  154.7065  147.2323 H       1  UNL1        0.0326
     43 H         119.6537  153.0499  147.7596 H       1  UNL1        0.0326
     44 H         123.5436  153.0749  144.5751 H       1  UNL1        0.0560
     45 H         123.3218  154.6480  143.8262 H       1  UNL1        0.0560
     46 H         117.8348  153.7535  146.2756 H       1  UNL1        0.0814
     47 H         118.9710  154.1702  144.9757 H       1  UNL1        0.0814
     48 H         121.9894  151.4623  148.4362 H       1  UNL1        0.0636
     49 H         122.2163  149.0409  148.1142 H       1  UNL1        0.0619
     50 H         121.3068  149.5913  143.9691 H       1  UNL1        0.0829
     51 H         116.6630  152.1505  144.8611 H       1  UNL1        0.0873
     52 H         117.5535  150.7446  144.2734 H       1  UNL1        0.0873
     53 H         121.9104  148.0601  145.8423 H       1  UNL1        0.0633
     54 H         119.1464  152.8066  139.9793 H       1  UNL1        0.0659
     55 H         117.3901  154.7039  140.3589 H       1  UNL1        0.0694
     56 H         120.7281  149.6514  141.3638 H       1  UNL1        0.0660
     57 H         120.9226  151.3240  140.8216 H       1  UNL1        0.0660
     58 H         119.5295  150.3246  140.2511 H       1  UNL1        0.0660
@<TRIPOS>UNITY_ATOM_ATTR
5 1
charge 1
@<TRIPOS>BOND
     1     1    23   ar
     2     1    26   ar
     3     2     6    1
     4     2    15    1
     5     3    24    1
     6     3    27    1
     7     4    16   ar
     8     4    20   ar
     9     5    17    1
    10     5    21    1
    11     5    28    1
    12     5    29    1
    13     6     8    1
    14     6     9    1
    15     6    10    1
    16     7     8    1
    17     7    11    1
    18     7    14    1
    19     7    16    1
    20     8    30    1
    21     8    31    1
    22     9    12    1
    23     9    32    1
    24     9    33    1
    25    10    13    1
    26    10    34    1
    27    10    35    1
    28    11    15    1
    29    11    36    1
    30    11    37    1
    31    12    13    1
    32    12    38    1
    33    12    39    1
    34    13    40    1
    35    13    41    1
    36    14    17    1
    37    14    42    1
    38    14    43    1
    39    15    44    1
    40    15    45    1
    41    16    18   ar
    42    17    46    1
    43    17    47    1
    44    18    19   ar
    45    18    48    1
    46    19    22   ar
    47    19    49    1
    48    20    22   ar
    49    20    50    1
    50    21    23    1
    51    21    51    1
    52    21    52    1
    53    22    53    1
    54    23    24   ar
    55    24    25   ar
    56    25    26   ar
    57    25    54    1
    58    26    55    1
    59    27    56    1
    60    27    57    1
    61    27    58    1
@<TRIPOS>MOLECULE
66553195
 58 61 0 0 0
SMALL
GASTEIGER

@<TRIPOS>ATOM
      1 S         116.4938  153.6375  142.5946 S.2     1  UNL1       -0.0926
      2 O         123.9506  154.8320  145.9891 O.3     1  UNL1       -0.3733
      3 O         119.9750  152.0047  142.3801 O.3     1  UNL1       -0.4941
      4 N         121.4228  151.3859  145.1595 N.ar    1  UNL1       -0.2593
      5 N         118.8413  152.1384  145.2648 N.4     1  UNL1        0.2308
      6 C         123.8171  154.2029  147.2667 C.3     1  UNL1        0.0704
      7 C         121.4286  153.4270  146.5400 C.3     1  UNL1        0.0224
      8 C         122.3298  154.0696  147.6414 C.3     1  UNL1       -0.0124
      9 C         124.5510  155.0977  148.2801 C.3     1  UNL1       -0.0237
     10 C         124.6552  152.9222  147.3598 C.3     1  UNL1       -0.0237
     11 C         121.7597  154.1742  145.2180 C.3     1  UNL1       -0.0181
     12 C         126.0348  154.8011  148.0661 C.3     1  UNL1       -0.0504
     13 C         126.0983  153.4192  147.4212 C.3     1  UNL1       -0.0504
     14 C         119.9292  153.6622  146.9292 C.3     1  UNL1       -0.0013
     15 C         123.2538  154.1928  144.9294 C.3     1  UNL1        0.0492
     16 C         121.6288  151.9086  146.4001 C.ar    1  UNL1        0.0478
     17 C         118.8648  153.5060  145.8336 C.3     1  UNL1       -0.0325
     18 C         121.8825  151.0769  147.4904 C.ar    1  UNL1       -0.0398
     19 C         122.0394  149.7064  147.2873 C.ar    1  UNL1       -0.0586
     20 C         121.6324  150.0562  144.9808 C.ar    1  UNL1        0.0279
     21 C         117.7434  151.8399  144.3023 C.3     1  UNL1        0.0021
     22 C         121.9322  149.1851  146.0071 C.ar    1  UNL1       -0.0436
     23 C         117.8136  152.6486  143.0532 C.ar    1  UNL1        0.0756
     24 C         118.8497  152.7253  142.1445 C.ar    1  UNL1        0.1353
     25 C         118.5501  153.6000  141.0602 C.ar    1  UNL1       -0.0124
     26 C         117.2968  154.1607  141.1812 C.ar    1  UNL1       -0.0203
     27 C         121.0140  152.1922  141.4219 C.3     1  UNL1        0.0788
     28 H         118.8372  151.4329  146.0086 H       1  UNL1        0.2017
     29 H         119.7416  151.9582  144.7698 H       1  UNL1        0.2017
     30 H         121.9584  155.0933  147.8012 H       1  UNL1        0.0302
     31 H         122.2164  153.5719  148.6106 H       1  UNL1        0.0302
     32 H         124.2738  154.8326  149.3079 H       1  UNL1        0.0293
     33 H         124.3446  156.1631  148.1316 H       1  UNL1        0.0293
     34 H         124.5331  152.2381  146.5171 H       1  UNL1        0.0293
     35 H         124.4267  152.3769  148.2834 H       1  UNL1        0.0293
     36 H         121.4197  155.2147  145.3134 H       1  UNL1        0.0296
     37 H         121.2366  153.7528  144.3537 H       1  UNL1        0.0296
     38 H         126.5826  154.8327  149.0135 H       1  UNL1        0.0266
     39 H         126.4867  155.5459  147.4012 H       1  UNL1        0.0266
     40 H         126.5166  153.4996  146.4111 H       1  UNL1        0.0266
     41 H         126.7353  152.7318  147.9868 H       1  UNL1        0.0266
     42 H         119.8233  154.6908  147.3005 H       1  UNL1        0.0326
     43 H         119.6613  153.0174  147.7776 H       1  UNL1        0.0326
     44 H         123.6566  153.1922  144.7476 H       1  UNL1        0.0560
     45 H         123.4388  154.7763  144.0213 H       1  UNL1        0.0560
     46 H         117.8736  153.6900  146.2626 H       1  UNL1        0.0814
     47 H         119.0258  154.2154  145.0168 H       1  UNL1        0.0814
     48 H         121.9826  151.4601  148.5008 H       1  UNL1        0.0636
     49 H         122.2697  149.0521  148.1258 H       1  UNL1        0.0619
     50 H         121.5427  149.6999  143.9570 H       1  UNL1        0.0829
     51 H         116.8031  151.9744  144.8480 H       1  UNL1        0.0873
     52 H         117.8374  150.7753  144.0600 H       1  UNL1        0.0873
     53 H         122.0854  148.1275  145.8177 H       1  UNL1        0.0633
     54 H         119.1991  153.8210  140.2214 H       1  UNL1        0.0659
     55 H         116.8140  154.8530  140.5027 H       1  UNL1        0.0694
     56 H         121.8665  151.5797  141.7305 H       1  UNL1        0.0660
     57 H         121.3439  153.2364  141.3982 H       1  UNL1        0.0660
     58 H         120.6994  151.8548  140.4288 H       1  UNL1        0.0660
@<TRIPOS>UNITY_ATOM_ATTR
5 1
charge 1
@<TRIPOS>BOND
     1     1    23   ar
     2     1    26   ar
     3     2     6    1
     4     2    15    1
     5     3    24    1
     6     3    27    1
     7     4    16   ar
     8     4    20   ar
     9     5    17    1
    10     5    21    1
    11     5    28    1
    12     5    29    1
    13     6     8    1
    14     6     9    1
    15     6    10    1
    16     7     8    1
    17     7    11    1
    18     7    14    1
    19     7    16    1
    20     8    30    1
    21     8    31    1
    22     9    12    1
    23     9    32    1
    24     9    33    1
    25    10    13    1
    26    10    34    1
    27    10    35    1
    28    11    15    1
    29    11    36    1
    30    11    37    1
    31    12    13    1
    32    12    38    1
    33    12    39    1
    34    13    40    1
    35    13    41    1
    36    14    17    1
    37    14    42    1
    38    14    43    1
    39    15    44    1
    40    15    45    1
    41    16    18   ar
    42    17    46    1
    43    17    47    1
    44    18    19   ar
    45    18    48    1
    46    19    22   ar
    47    19    49    1
    48    20    22   ar
    49    20    50    1
    50    21    23    1
    51    21    51    1
    52    21    52    1
    53    22    53    1
    54    23    24   ar
    55    24    25   ar
    56    25    26   ar
    57    25    54    1
    58    26    55    1
    59    27    56    1
    60    27    57    1
    61    27    58    1
@<TRIPOS>MOLECULE
66553195
 58 61 0 0 0
SMALL
GASTEIGER

@<TRIPOS>ATOM
      1 S         114.3566  153.7728  147.3134 S.2     1  UNL1       -0.0926
      2 O         123.8162  154.9472  145.7459 O.3     1  UNL1       -0.3733
      3 O         116.1004  152.9073  150.6402 O.3     1  UNL1       -0.4941
      4 N         121.5721  151.2880  147.1775 N.ar    1  UNL1       -0.2593
      5 N         118.0538  153.5341  148.5519 N.4     1  UNL1        0.2308
      6 C         123.7703  154.1405  146.9272 C.3     1  UNL1        0.0704
      7 C         121.2962  153.5770  146.3586 C.3     1  UNL1        0.0224
      8 C         122.3235  154.0311  147.4386 C.3     1  UNL1       -0.0124
      9 C         124.6623  154.8333  147.9708 C.3     1  UNL1       -0.0237
     10 C         124.5182  152.8132  146.7480 C.3     1  UNL1       -0.0237
     11 C         121.5309  154.4810  145.1170 C.3     1  UNL1       -0.0181
     12 C         126.0911  154.4949  147.5490 C.3     1  UNL1       -0.0504
     13 C         125.9941  153.2077  146.7342 C.3     1  UNL1       -0.0504
     14 C         119.8348  153.8399  146.8538 C.3     1  UNL1       -0.0013
     15 C         122.9890  154.5008  144.6805 C.3     1  UNL1        0.0492
     16 C         121.4095  152.0729  146.0801 C.ar    1  UNL1        0.0478
     17 C         119.4361  153.1291  148.1516 C.3     1  UNL1       -0.0325
     18 C         121.2768  151.5119  144.8105 C.ar    1  UNL1       -0.0398
     19 C         121.3706  150.1288  144.6594 C.ar    1  UNL1       -0.0586
     20 C         121.6859  149.9500  147.0004 C.ar    1  UNL1        0.0279
     21 C         116.9375  152.8773  147.8051 C.3     1  UNL1        0.0021
     22 C         121.5889  149.3302  145.7715 C.ar    1  UNL1       -0.0436
     23 C         115.6113  153.2687  148.3626 C.ar    1  UNL1        0.0756
     24 C         115.2054  153.2684  149.6824 C.ar    1  UNL1        0.1353
     25 C         113.8516  153.6891  149.8281 C.ar    1  UNL1       -0.0124
     26 C         113.2721  153.9909  148.6142 C.ar    1  UNL1       -0.0203
     27 C         115.5393  152.7699  151.9464 C.3     1  UNL1        0.0788
     28 H         117.9336  154.5533  148.5163 H       1  UNL1        0.2017
     29 H         117.9069  153.2832  149.5427 H       1  UNL1        0.2017
     30 H         122.0189  155.0330  147.7760 H       1  UNL1        0.0302
     31 H         122.2936  153.3940  148.3305 H       1  UNL1        0.0302
     32 H         124.4758  154.4308  148.9742 H       1  UNL1        0.0293
     33 H         124.5148  155.9182  148.0013 H       1  UNL1        0.0293
     34 H         124.2695  152.2712  145.8331 H       1  UNL1        0.0293
     35 H         124.3327  152.1480  147.6002 H       1  UNL1        0.0293
     36 H         121.2585  155.5120  145.3849 H       1  UNL1        0.0296
     37 H         120.8829  154.2102  144.2770 H       1  UNL1        0.0296
     38 H         126.7431  154.3771  148.4205 H       1  UNL1        0.0266
     39 H         126.5113  155.2970  146.9314 H       1  UNL1        0.0266
     40 H         126.3301  153.3920  145.7070 H       1  UNL1        0.0266
     41 H         126.6235  152.4134  147.1478 H       1  UNL1        0.0266
     42 H         119.1389  153.5522  146.0549 H       1  UNL1        0.0326
     43 H         119.6977  154.9204  146.9993 H       1  UNL1        0.0326
     44 H         123.3299  153.5306  144.3089 H       1  UNL1        0.0560
     45 H         123.1097  155.2120  143.8565 H       1  UNL1        0.0560
     46 H         119.4238  152.0405  148.0761 H       1  UNL1        0.0814
     47 H         120.0796  153.4281  148.9835 H       1  UNL1        0.0814
     48 H         121.1125  152.1108  143.9218 H       1  UNL1        0.0636
     49 H         121.2868  149.6788  143.6727 H       1  UNL1        0.0619
     50 H         121.8639  149.3719  147.9034 H       1  UNL1        0.0829
     51 H         117.0788  151.7948  147.8976 H       1  UNL1        0.0873
     52 H         117.0413  153.1632  146.7544 H       1  UNL1        0.0873
     53 H         121.6860  148.2536  145.6798 H       1  UNL1        0.0633
     54 H         113.3065  153.7759  150.7603 H       1  UNL1        0.0659
     55 H         112.2602  154.3301  148.4305 H       1  UNL1        0.0694
     56 H         116.3321  152.4187  152.6138 H       1  UNL1        0.0660
     57 H         114.7369  152.0243  151.9559 H       1  UNL1        0.0660
     58 H         115.1860  153.7351  152.3240 H       1  UNL1        0.0660
@<TRIPOS>UNITY_ATOM_ATTR
5 1
charge 1
@<TRIPOS>BOND
     1     1    23   ar
     2     1    26   ar
     3     2     6    1
     4     2    15    1
     5     3    24    1
     6     3    27    1
     7     4    16   ar
     8     4    20   ar
     9     5    17    1
    10     5    21    1
    11     5    28    1
    12     5    29    1
    13     6     8    1
    14     6     9    1
    15     6    10    1
    16     7     8    1
    17     7    11    1
    18     7    14    1
    19     7    16    1
    20     8    30    1
    21     8    31    1
    22     9    12    1
    23     9    32    1
    24     9    33    1
    25    10    13    1
    26    10    34    1
    27    10    35    1
    28    11    15    1
    29    11    36    1
    30    11    37    1
    31    12    13    1
    32    12    38    1
    33    12    39    1
    34    13    40    1
    35    13    41    1
    36    14    17    1
    37    14    42    1
    38    14    43    1
    39    15    44    1
    40    15    45    1
    41    16    18   ar
    42    17    46    1
    43    17    47    1
    44    18    19   ar
    45    18    48    1
    46    19    22   ar
    47    19    49    1
    48    20    22   ar
    49    20    50    1
    50    21    23    1
    51    21    51    1
    52    21    52    1
    53    22    53    1
    54    23    24   ar
    55    24    25   ar
    56    25    26   ar
    57    25    54    1
    58    26    55    1
    59    27    56    1
    60    27    57    1
    61    27    58    1
@<TRIPOS>MOLECULE
66553195
 58 61 0 0 0
SMALL
GASTEIGER

@<TRIPOS>ATOM
      1 S         118.2929  157.5503  145.0491 S.2     1  UNL1       -0.0926
      2 O         124.1490  154.8381  146.0676 O.3     1  UNL1       -0.3733
      3 O         116.6673  154.4299  143.4710 O.3     1  UNL1       -0.4941
      4 N         121.4566  151.6107  144.9277 N.ar    1  UNL1       -0.2593
      5 N         117.6650  153.7865  146.1328 N.4     1  UNL1        0.2308
      6 C         123.9641  154.1098  147.2846 C.3     1  UNL1        0.0704
      7 C         121.5603  153.5143  146.4690 C.3     1  UNL1        0.0224
      8 C         122.4668  154.0237  147.6293 C.3     1  UNL1       -0.0124
      9 C         124.7288  154.8756  148.3772 C.3     1  UNL1       -0.0237
     10 C         124.7318  152.7824  147.2782 C.3     1  UNL1       -0.0237
     11 C         121.9488  154.3437  145.2098 C.3     1  UNL1       -0.0181
     12 C         126.1980  154.5217  148.1487 C.3     1  UNL1       -0.0504
     13 C         126.1979  153.1956  147.3924 C.3     1  UNL1       -0.0504
     14 C         120.0679  153.8083  146.8393 C.3     1  UNL1       -0.0013
     15 C         123.4467  154.3167  144.9473 C.3     1  UNL1        0.0492
     16 C         121.6662  152.0066  146.2089 C.ar    1  UNL1        0.0478
     17 C         119.0636  153.4090  145.7535 C.3     1  UNL1       -0.0325
     18 C         121.8379  151.0723  147.2305 C.ar    1  UNL1       -0.0398
     19 C         121.8770  149.7145  146.9167 C.ar    1  UNL1       -0.0586
     20 C         121.5216  150.2883  144.6450 C.ar    1  UNL1        0.0279
     21 C         117.3346  155.2418  146.2443 C.3     1  UNL1        0.0021
     22 C         121.7271  149.3116  145.5983 C.ar    1  UNL1       -0.0436
     23 C         117.5574  156.0056  144.9844 C.ar    1  UNL1        0.0756
     24 C         117.2384  155.6447  143.6896 C.ar    1  UNL1        0.1353
     25 C         117.5993  156.6523  142.7481 C.ar    1  UNL1       -0.0124
     26 C         118.1807  157.7437  143.3568 C.ar    1  UNL1       -0.0203
     27 C         116.4301  154.1296  142.0954 C.3     1  UNL1        0.0788
     28 H         117.3823  153.2982  146.9890 H       1  UNL1        0.2017
     29 H         117.0539  153.4302  145.3816 H       1  UNL1        0.2017
     30 H         122.1386  155.0473  147.8661 H       1  UNL1        0.0302
     31 H         122.3143  153.4543  148.5526 H       1  UNL1        0.0302
     32 H         124.4261  154.5379  149.3761 H       1  UNL1        0.0293
     33 H         124.5787  155.9590  148.3193 H       1  UNL1        0.0293
     34 H         124.5841  152.1763  146.3817 H       1  UNL1        0.0293
     35 H         124.4624  152.1762  148.1515 H       1  UNL1        0.0293
     36 H         121.6530  155.3888  145.3771 H       1  UNL1        0.0296
     37 H         121.4249  154.0138  144.3065 H       1  UNL1        0.0296
     38 H         126.7374  154.4479  149.0984 H       1  UNL1        0.0266
     39 H         126.6934  155.2942  147.5493 H       1  UNL1        0.0266
     40 H         126.6324  153.3365  146.3957 H       1  UNL1        0.0266
     41 H         126.7912  152.4315  147.9044 H       1  UNL1        0.0266
     42 H         119.9727  154.8802  147.0496 H       1  UNL1        0.0326
     43 H         119.8072  153.2894  147.7719 H       1  UNL1        0.0326
     44 H         123.8083  153.3165  144.6919 H       1  UNL1        0.0560
     45 H         123.6755  154.9622  144.0927 H       1  UNL1        0.0560
     46 H         119.2747  153.8702  144.7870 H       1  UNL1        0.0814
     47 H         119.0269  152.3245  145.6209 H       1  UNL1        0.0814
     48 H         121.9535  151.3642  148.2685 H       1  UNL1        0.0636
     49 H         122.0359  148.9753  147.6985 H       1  UNL1        0.0619
     50 H         121.3990  150.0280  143.5968 H       1  UNL1        0.0829
     51 H         117.8988  155.6356  147.0949 H       1  UNL1        0.0873
     52 H         116.2720  155.2822  146.5103 H       1  UNL1        0.0873
     53 H         121.7720  148.2635  145.3222 H       1  UNL1        0.0633
     54 H         117.4523  156.6065  141.6757 H       1  UNL1        0.0659
     55 H         118.5456  158.6478  142.8851 H       1  UNL1        0.0694
     56 H         115.9885  153.1298  142.0449 H       1  UNL1        0.0660
     57 H         117.3684  154.1093  141.5305 H       1  UNL1        0.0660
     58 H         115.7182  154.8353  141.6549 H       1  UNL1        0.0660
@<TRIPOS>UNITY_ATOM_ATTR
5 1
charge 1
@<TRIPOS>BOND
     1     1    23   ar
     2     1    26   ar
     3     2     6    1
     4     2    15    1
     5     3    24    1
     6     3    27    1
     7     4    16   ar
     8     4    20   ar
     9     5    17    1
    10     5    21    1
    11     5    28    1
    12     5    29    1
    13     6     8    1
    14     6     9    1
    15     6    10    1
    16     7     8    1
    17     7    11    1
    18     7    14    1
    19     7    16    1
    20     8    30    1
    21     8    31    1
    22     9    12    1
    23     9    32    1
    24     9    33    1
    25    10    13    1
    26    10    34    1
    27    10    35    1
    28    11    15    1
    29    11    36    1
    30    11    37    1
    31    12    13    1
    32    12    38    1
    33    12    39    1
    34    13    40    1
    35    13    41    1
    36    14    17    1
    37    14    42    1
    38    14    43    1
    39    15    44    1
    40    15    45    1
    41    16    18   ar
    42    17    46    1
    43    17    47    1
    44    18    19   ar
    45    18    48    1
    46    19    22   ar
    47    19    49    1
    48    20    22   ar
    49    20    50    1
    50    21    23    1
    51    21    51    1
    52    21    52    1
    53    22    53    1
    54    23    24   ar
    55    24    25   ar
    56    25    26   ar
    57    25    54    1
    58    26    55    1
    59    27    56    1
    60    27    57    1
    61    27    58    1
@<TRIPOS>MOLECULE
66553195
 58 61 0 0 0
SMALL
GASTEIGER

@<TRIPOS>ATOM
      1 S         118.2772  157.7466  150.4515 S.2     1  UNL1       -0.0926
      2 O         124.1923  154.5701  145.7611 O.3     1  UNL1       -0.3733
      3 O         120.4620  158.7796  147.4508 O.3     1  UNL1       -0.4941
      4 N         121.1282  151.7719  144.8264 N.ar    1  UNL1       -0.2593
      5 N         118.4294  155.7135  147.6101 N.4     1  UNL1        0.2308
      6 C         124.0280  153.8489  146.9864 C.3     1  UNL1        0.0704
      7 C         121.4994  153.6202  146.4069 C.3     1  UNL1        0.0224
      8 C         122.5732  153.9650  147.4786 C.3     1  UNL1       -0.0124
      9 C         124.9898  154.4847  148.0050 C.3     1  UNL1       -0.0237
     10 C         124.6014  152.4297  146.9012 C.3     1  UNL1       -0.0237
     11 C         121.8761  154.4151  145.1241 C.3     1  UNL1       -0.0181
     12 C         126.3682  153.9383  147.6376 C.3     1  UNL1       -0.0504
     13 C         126.1153  152.6342  146.8857 C.3     1  UNL1       -0.0504
     14 C         120.0672  154.0197  146.8964 C.3     1  UNL1       -0.0013
     15 C         123.3196  154.1662  144.7094 C.3     1  UNL1        0.0492
     16 C         121.3996  152.1125  146.1099 C.ar    1  UNL1        0.0478
     17 C         119.8100  155.5153  147.0599 C.3     1  UNL1       -0.0325
     18 C         121.4760  151.1422  147.1113 C.ar    1  UNL1       -0.0398
     19 C         121.3355  149.7971  146.7731 C.ar    1  UNL1       -0.0586
     20 C         121.0056  150.4596  144.5211 C.ar    1  UNL1        0.0279
     21 C         118.0202  157.1494  147.7526 C.3     1  UNL1        0.0021
     22 C         121.1033  149.4448  145.4521 C.ar    1  UNL1       -0.0436
     23 C         118.7810  157.8585  148.8189 C.ar    1  UNL1        0.0756
     24 C         119.9175  158.6306  148.6851 C.ar    1  UNL1        0.1353
     25 C         120.3649  159.1477  149.9352 C.ar    1  UNL1       -0.0124
     26 C         119.5580  158.7465  150.9784 C.ar    1  UNL1       -0.0203
     27 C         121.6030  159.6338  147.4007 C.3     1  UNL1        0.0788
     28 H         118.3519  155.2723  148.5351 H       1  UNL1        0.2017
     29 H         117.7478  155.2449  147.0012 H       1  UNL1        0.2017
     30 H         122.4313  155.0154  147.7644 H       1  UNL1        0.0302
     31 H         122.4314  153.3939  148.4026 H       1  UNL1        0.0302
     32 H         124.7378  154.1744  149.0268 H       1  UNL1        0.0293
     33 H         124.9847  155.5794  147.9665 H       1  UNL1        0.0293
     34 H         124.2931  151.8668  146.0175 H       1  UNL1        0.0293
     35 H         124.3279  151.8492  147.7907 H       1  UNL1        0.0293
     36 H         121.7924  155.4899  145.3260 H       1  UNL1        0.0296
     37 H         121.1970  154.2001  144.2910 H       1  UNL1        0.0296
     38 H         126.9804  153.7805  148.5314 H       1  UNL1        0.0266
     39 H         126.9046  154.6441  146.9932 H       1  UNL1        0.0266
     40 H         126.4769  152.7243  145.8546 H       1  UNL1        0.0266
     41 H         126.6381  151.7891  147.3446 H       1  UNL1        0.0266
     42 H         119.8641  153.5188  147.8537 H       1  UNL1        0.0326
     43 H         119.3209  153.6276  146.1898 H       1  UNL1        0.0326
     44 H         123.5101  153.1290  144.4209 H       1  UNL1        0.0560
     45 H         123.5574  154.7852  143.8378 H       1  UNL1        0.0560
     46 H         120.5070  155.9643  147.7686 H       1  UNL1        0.0814
     47 H         119.8395  156.0430  146.1030 H       1  UNL1        0.0814
     48 H         121.6458  151.3978  148.1509 H       1  UNL1        0.0636
     49 H         121.4106  149.0274  147.5373 H       1  UNL1        0.0619
     50 H         120.8200  150.2407  143.4729 H       1  UNL1        0.0829
     51 H         116.9473  157.1344  147.9753 H       1  UNL1        0.0873
     52 H         118.1435  157.6200  146.7711 H       1  UNL1        0.0873
     53 H         120.9986  148.4066  145.1563 H       1  UNL1        0.0633
     54 H         121.2304  159.7812  150.0893 H       1  UNL1        0.0659
     55 H         119.6636  158.9939  152.0276 H       1  UNL1        0.0694
     56 H         121.9304  159.6916  146.3582 H       1  UNL1        0.0660
     57 H         122.4290  159.2193  147.9884 H       1  UNL1        0.0660
     58 H         121.3529  160.6474  147.7315 H       1  UNL1        0.0660
@<TRIPOS>UNITY_ATOM_ATTR
5 1
charge 1
@<TRIPOS>BOND
     1     1    23   ar
     2     1    26   ar
     3     2     6    1
     4     2    15    1
     5     3    24    1
     6     3    27    1
     7     4    16   ar
     8     4    20   ar
     9     5    17    1
    10     5    21    1
    11     5    28    1
    12     5    29    1
    13     6     8    1
    14     6     9    1
    15     6    10    1
    16     7     8    1
    17     7    11    1
    18     7    14    1
    19     7    16    1
    20     8    30    1
    21     8    31    1
    22     9    12    1
    23     9    32    1
    24     9    33    1
    25    10    13    1
    26    10    34    1
    27    10    35    1
    28    11    15    1
    29    11    36    1
    30    11    37    1
    31    12    13    1
    32    12    38    1
    33    12    39    1
    34    13    40    1
    35    13    41    1
    36    14    17    1
    37    14    42    1
    38    14    43    1
    39    15    44    1
    40    15    45    1
    41    16    18   ar
    42    17    46    1
    43    17    47    1
    44    18    19   ar
    45    18    48    1
    46    19    22   ar
    47    19    49    1
    48    20    22   ar
    49    20    50    1
    50    21    23    1
    51    21    51    1
    52    21    52    1
    53    22    53    1
    54    23    24   ar
    55    24    25   ar
    56    25    26   ar
    57    25    54    1
    58    26    55    1
    59    27    56    1
    60    27    57    1
    61    27    58    1
@<TRIPOS>MOLECULE
66553195
 58 61 0 0 0
SMALL
GASTEIGER

@<TRIPOS>ATOM
      1 S         116.4412  150.5669  148.7737 S.2     1  UNL1       -0.0926
      2 O         124.0237  155.0620  145.9330 O.3     1  UNL1       -0.3733
      3 O         117.8018  151.3562  145.2546 O.3     1  UNL1       -0.4941
      4 N         121.8051  151.3025  147.2071 N.ar    1  UNL1       -0.2593
      5 N         118.2095  153.4389  148.5035 N.4     1  UNL1        0.2308
      6 C         123.9546  154.2220  147.0896 C.3     1  UNL1        0.0704
      7 C         121.5265  153.5967  146.4060 C.3     1  UNL1        0.0224
      8 C         122.4923  154.0612  147.5371 C.3     1  UNL1       -0.0124
      9 C         124.7837  154.9087  148.1873 C.3     1  UNL1       -0.0237
     10 C         124.7450  152.9199  146.9066 C.3     1  UNL1       -0.0237
     11 C         121.7836  154.5308  145.1914 C.3     1  UNL1       -0.0181
     12 C         126.2375  154.6167  147.8196 C.3     1  UNL1       -0.0504
     13 C         126.2086  153.3529  146.9642 C.3     1  UNL1       -0.0504
     14 C         120.0378  153.8110  146.8440 C.3     1  UNL1       -0.0013
     15 C         123.2580  154.6181  144.8215 C.3     1  UNL1        0.0492
     16 C         121.7058  152.1017  146.1120 C.ar    1  UNL1        0.0478
     17 C         119.6026  153.0477  148.0981 C.3     1  UNL1       -0.0325
     18 C         121.7131  151.5607  144.8270 C.ar    1  UNL1       -0.0398
     19 C         121.8784  150.1855  144.6635 C.ar    1  UNL1       -0.0586
     20 C         121.9748  149.9722  147.0206 C.ar    1  UNL1        0.0279
     21 C         117.0932  152.9993  147.6051 C.3     1  UNL1        0.0021
     22 C         122.0169  149.3731  145.7784 C.ar    1  UNL1       -0.0436
     23 C         116.9997  151.5200  147.4639 C.ar    1  UNL1        0.0756
     24 C         117.3277  150.7457  146.3699 C.ar    1  UNL1        0.1353
     25 C         117.1217  149.3569  146.6152 C.ar    1  UNL1       -0.0124
     26 C         116.6402  149.1219  147.8852 C.ar    1  UNL1       -0.0203
     27 C         118.0022  150.4895  144.1414 C.3     1  UNL1        0.0788
     28 H         118.1560  154.4543  148.6400 H       1  UNL1        0.2017
     29 H         118.0281  153.0161  149.4228 H       1  UNL1        0.2017
     30 H         122.1435  155.0469  147.8792 H       1  UNL1        0.0302
     31 H         122.4450  153.4061  148.4151 H       1  UNL1        0.0302
     32 H         124.5653  154.4753  149.1713 H       1  UNL1        0.0293
     33 H         124.6070  155.9884  148.2393 H       1  UNL1        0.0293
     34 H         124.5500  152.3970  145.9680 H       1  UNL1        0.0293
     35 H         124.5426  152.2266  147.7322 H       1  UNL1        0.0293
     36 H         121.4582  155.5453  145.4625 H       1  UNL1        0.0296
     37 H         121.1851  154.2487  144.3185 H       1  UNL1        0.0296
     38 H         126.8531  154.4874  148.7156 H       1  UNL1        0.0266
     39 H         126.6646  155.4467  147.2452 H       1  UNL1        0.0266
     40 H         126.5796  153.5771  145.9573 H       1  UNL1        0.0266
     41 H         126.8426  152.5630  147.3792 H       1  UNL1        0.0266
     42 H         119.3878  153.5321  146.0053 H       1  UNL1        0.0326
     43 H         119.8673  154.8826  147.0165 H       1  UNL1        0.0326
     44 H         123.6520  153.6737  144.4369 H       1  UNL1        0.0560
     45 H         123.3861  155.3575  144.0238 H       1  UNL1        0.0560
     46 H         119.5990  151.9643  147.9771 H       1  UNL1        0.0814
     47 H         120.2284  153.3050  148.9571 H       1  UNL1        0.0814
     48 H         121.6096  152.1711  143.9373 H       1  UNL1        0.0636
     49 H         121.9102  149.7529  143.6663 H       1  UNL1        0.0619
     50 H         122.0832  149.3833  147.9276 H       1  UNL1        0.0829
     51 H         117.2277  153.5060  146.6449 H       1  UNL1        0.0873
     52 H         116.1764  153.4017  148.0515 H       1  UNL1        0.0873
     53 H         122.1613  148.3027  145.6804 H       1  UNL1        0.0633
     54 H         117.3105  148.5526  145.9146 H       1  UNL1        0.0659
     55 H         116.3951  148.1663  148.3318 H       1  UNL1        0.0694
     56 H         118.3633  151.0973  143.3063 H       1  UNL1        0.0660
     57 H         117.0620  150.0196  143.8338 H       1  UNL1        0.0660
     58 H         118.7645  149.7347  144.3600 H       1  UNL1        0.0660
@<TRIPOS>UNITY_ATOM_ATTR
5 1
charge 1
@<TRIPOS>BOND
     1     1    23   ar
     2     1    26   ar
     3     2     6    1
     4     2    15    1
     5     3    24    1
     6     3    27    1
     7     4    16   ar
     8     4    20   ar
     9     5    17    1
    10     5    21    1
    11     5    28    1
    12     5    29    1
    13     6     8    1
    14     6     9    1
    15     6    10    1
    16     7     8    1
    17     7    11    1
    18     7    14    1
    19     7    16    1
    20     8    30    1
    21     8    31    1
    22     9    12    1
    23     9    32    1
    24     9    33    1
    25    10    13    1
    26    10    34    1
    27    10    35    1
    28    11    15    1
    29    11    36    1
    30    11    37    1
    31    12    13    1
    32    12    38    1
    33    12    39    1
    34    13    40    1
    35    13    41    1
    36    14    17    1
    37    14    42    1
    38    14    43    1
    39    15    44    1
    40    15    45    1
    41    16    18   ar
    42    17    46    1
    43    17    47    1
    44    18    19   ar
    45    18    48    1
    46    19    22   ar
    47    19    49    1
    48    20    22   ar
    49    20    50    1
    50    21    23    1
    51    21    51    1
    52    21    52    1
    53    22    53    1
    54    23    24   ar
    55    24    25   ar
    56    25    26   ar
    57    25    54    1
    58    26    55    1
    59    27    56    1
    60    27    57    1
    61    27    58    1
@<TRIPOS>MOLECULE
66553195
 58 61 0 0 0
SMALL
GASTEIGER

@<TRIPOS>ATOM
      1 S         115.7601  154.5978  150.8274 S.2     1  UNL1       -0.0926
      2 O         123.9686  154.8993  145.9152 O.3     1  UNL1       -0.3733
      3 O         116.7968  156.7018  147.7716 O.3     1  UNL1       -0.4941
      4 N         121.6156  151.1976  147.1931 N.ar    1  UNL1       -0.2593
      5 N         118.1345  153.4891  148.4850 N.4     1  UNL1        0.2308
      6 C         123.8845  154.0533  147.0663 C.3     1  UNL1        0.0704
      7 C         121.4354  153.5003  146.3926 C.3     1  UNL1        0.0224
      8 C         122.4211  153.9286  147.5215 C.3     1  UNL1       -0.0124
      9 C         124.7384  154.7113  148.1627 C.3     1  UNL1       -0.0237
     10 C         124.6401  152.7329  146.8696 C.3     1  UNL1       -0.0237
     11 C         121.7151  154.4296  145.1789 C.3     1  UNL1       -0.0181
     12 C         126.1816  154.3870  147.7804 C.3     1  UNL1       -0.0504
     13 C         126.1143  153.1311  146.9150 C.3     1  UNL1       -0.0504
     14 C         119.9611  153.7719  146.8420 C.3     1  UNL1       -0.0013
     15 C         123.1893  154.4796  144.8038 C.3     1  UNL1        0.0492
     16 C         121.5607  152.0014  146.0973 C.ar    1  UNL1        0.0478
     17 C         119.4752  152.9783  148.0596 C.3     1  UNL1       -0.0325
     18 C         121.5613  151.4628  144.8115 C.ar    1  UNL1       -0.0398
     19 C         121.6778  150.0828  144.6471 C.ar    1  UNL1       -0.0586
     20 C         121.7489  149.8628  147.0047 C.ar    1  UNL1        0.0279
     21 C         118.1475  154.6631  149.4085 C.3     1  UNL1        0.0021
     22 C         121.7827  149.2648  145.7616 C.ar    1  UNL1       -0.0436
     23 C         116.7691  155.1969  149.5823 C.ar    1  UNL1        0.0756
     24 C         116.1327  156.1555  148.8216 C.ar    1  UNL1        0.1353
     25 C         114.8052  156.4056  149.2744 C.ar    1  UNL1       -0.0124
     26 C         114.4766  155.6258  150.3630 C.ar    1  UNL1       -0.0203
     27 C         116.1597  157.8414  147.1966 C.3     1  UNL1        0.0788
     28 H         117.6202  152.7362  148.9595 H       1  UNL1        0.2017
     29 H         117.5667  153.7317  147.6623 H       1  UNL1        0.2017
     30 H         122.1027  154.9211  147.8736 H       1  UNL1        0.0302
     31 H         122.3600  153.2692  148.3954 H       1  UNL1        0.0302
     32 H         124.5174  154.2755  149.1450 H       1  UNL1        0.0293
     33 H         124.5884  155.7945  148.2243 H       1  UNL1        0.0293
     34 H         124.4233  152.2195  145.9305 H       1  UNL1        0.0293
     35 H         124.4281  152.0406  147.6936 H       1  UNL1        0.0293
     36 H         121.4181  155.4522  145.4529 H       1  UNL1        0.0296
     37 H         121.1063  154.1657  144.3074 H       1  UNL1        0.0296
     38 H         126.8013  154.2354  148.6701 H       1  UNL1        0.0266
     39 H         126.6241  155.2112  147.2092 H       1  UNL1        0.0266
     40 H         126.4794  153.3559  145.9060 H       1  UNL1        0.0266
     41 H         126.7346  152.3235  147.3162 H       1  UNL1        0.0266
     42 H         119.2852  153.5562  146.0020 H       1  UNL1        0.0326
     43 H         119.8515  154.8452  147.0441 H       1  UNL1        0.0326
     44 H         123.5573  153.5270  144.4140 H       1  UNL1        0.0560
     45 H         123.3340  155.2190  144.0089 H       1  UNL1        0.0560
     46 H         119.3036  151.9289  147.8068 H       1  UNL1        0.0814
     47 H         120.1389  153.0440  148.9256 H       1  UNL1        0.0814
     48 H         121.4893  152.0766  143.9208 H       1  UNL1        0.0636
     49 H         121.6997  149.6503  143.6493 H       1  UNL1        0.0619
     50 H         121.8325  149.2679  147.9105 H       1  UNL1        0.0829
     51 H         118.8083  155.4216  148.9770 H       1  UNL1        0.0873
     52 H         118.5850  154.3243  150.3540 H       1  UNL1        0.0873
     53 H         121.8923  148.1902  145.6613 H       1  UNL1        0.0633
     54 H         114.1063  157.1105  148.8401 H       1  UNL1        0.0659
     55 H         113.5396  155.6108  150.9059 H       1  UNL1        0.0694
     56 H         115.9963  158.6249  147.9446 H       1  UNL1        0.0660
     57 H         115.2203  157.5596  146.7098 H       1  UNL1        0.0660
     58 H         116.8275  158.2448  146.4293 H       1  UNL1        0.0660
@<TRIPOS>UNITY_ATOM_ATTR
5 1
charge 1
@<TRIPOS>BOND
     1     1    23   ar
     2     1    26   ar
     3     2     6    1
     4     2    15    1
     5     3    24    1
     6     3    27    1
     7     4    16   ar
     8     4    20   ar
     9     5    17    1
    10     5    21    1
    11     5    28    1
    12     5    29    1
    13     6     8    1
    14     6     9    1
    15     6    10    1
    16     7     8    1
    17     7    11    1
    18     7    14    1
    19     7    16    1
    20     8    30    1
    21     8    31    1
    22     9    12    1
    23     9    32    1
    24     9    33    1
    25    10    13    1
    26    10    34    1
    27    10    35    1
    28    11    15    1
    29    11    36    1
    30    11    37    1
    31    12    13    1
    32    12    38    1
    33    12    39    1
    34    13    40    1
    35    13    41    1
    36    14    17    1
    37    14    42    1
    38    14    43    1
    39    15    44    1
    40    15    45    1
    41    16    18   ar
    42    17    46    1
    43    17    47    1
    44    18    19   ar
    45    18    48    1
    46    19    22   ar
    47    19    49    1
    48    20    22   ar
    49    20    50    1
    50    21    23    1
    51    21    51    1
    52    21    52    1
    53    22    53    1
    54    23    24   ar
    55    24    25   ar
    56    25    26   ar
    57    25    54    1
    58    26    55    1
    59    27    56    1
    60    27    57    1
    61    27    58    1
@<TRIPOS>MOLECULE
66553195
 58 61 0 0 0
SMALL
GASTEIGER

@<TRIPOS>ATOM
      1 S         116.9300  157.9567  145.9606 S.2     1  UNL1       -0.0926
      2 O         124.1261  154.6518  145.6422 O.3     1  UNL1       -0.3733
      3 O         116.2680  154.3776  144.6952 O.3     1  UNL1       -0.4941
      4 N         121.0736  151.7649  145.0630 N.ar    1  UNL1       -0.2593
      5 N         118.5389  155.9219  147.8407 N.4     1  UNL1        0.2308
      6 C         124.0476  154.0018  146.9144 C.3     1  UNL1        0.0704
      7 C         121.4913  153.7134  146.5064 C.3     1  UNL1        0.0224
      8 C         122.6240  154.1325  147.4880 C.3     1  UNL1       -0.0124
      9 C         125.0622  154.7036  147.8339 C.3     1  UNL1       -0.0237
     10 C         124.6326  152.5848  146.8756 C.3     1  UNL1       -0.0237
     11 C         121.7772  154.4327  145.1573 C.3     1  UNL1       -0.0181
     12 C         126.4225  154.1471  147.4169 C.3     1  UNL1       -0.0504
     13 C         126.1400  152.8013  146.7546 C.3     1  UNL1       -0.0504
     14 C         120.0885  154.1286  147.0678 C.3     1  UNL1       -0.0013
     15 C         123.1974  154.1778  144.6707 C.3     1  UNL1        0.0492
     16 C         121.3990  152.1887  146.3086 C.ar    1  UNL1        0.0478
     17 C         119.7796  155.6245  147.0548 C.3     1  UNL1       -0.0325
     18 C         121.5394  151.2836  147.3627 C.ar    1  UNL1       -0.0398
     19 C         121.4064  149.9182  147.1147 C.ar    1  UNL1       -0.0586
     20 C         120.9582  150.4348  144.8452 C.ar    1  UNL1        0.0279
     21 C         117.2296  155.5001  147.2425 C.3     1  UNL1        0.0021
     22 C         121.1174  149.4812  145.8306 C.ar    1  UNL1       -0.0436
     23 C         116.8640  156.2427  146.0030 C.ar    1  UNL1        0.0756
     24 C         116.4078  155.7221  144.8098 C.ar    1  UNL1        0.1353
     25 C         116.1537  156.7363  143.8413 C.ar    1  UNL1       -0.0124
     26 C         116.4025  157.9983  144.3371 C.ar    1  UNL1       -0.0203
     27 C         115.6076  153.9459  143.5079 C.3     1  UNL1        0.0788
     28 H         118.4796  156.9412  147.9667 H       1  UNL1        0.2017
     29 H         118.6148  155.5245  148.7839 H       1  UNL1        0.2017
     30 H         122.4815  155.1956  147.7231 H       1  UNL1        0.0302
     31 H         122.5483  153.6137  148.4499 H       1  UNL1        0.0302
     32 H         124.8757  154.4519  148.8854 H       1  UNL1        0.0293
     33 H         125.0427  155.7940  147.7322 H       1  UNL1        0.0293
     34 H         124.2781  151.9687  146.0464 H       1  UNL1        0.0293
     35 H         124.4215  152.0545  147.8121 H       1  UNL1        0.0293
     36 H         121.6875  155.5168  145.2987 H       1  UNL1        0.0296
     37 H         121.0525  154.1583  144.3821 H       1  UNL1        0.0296
     38 H         127.0870  154.0436  148.2808 H       1  UNL1        0.0266
     39 H         126.9137  154.8195  146.7043 H       1  UNL1        0.0266
     40 H         126.4362  152.8375  145.6997 H       1  UNL1        0.0266
     41 H         126.7006  151.9876  147.2255 H       1  UNL1        0.0266
     42 H         119.9883  153.7458  148.0930 H       1  UNL1        0.0326
     43 H         119.3095  153.6229  146.4805 H       1  UNL1        0.0326
     44 H         123.3865  153.1283  144.4304 H       1  UNL1        0.0560
     45 H         123.3727  154.7482  143.7524 H       1  UNL1        0.0560
     46 H         120.5680  156.2036  147.5417 H       1  UNL1        0.0814
     47 H         119.6313  156.0136  146.0439 H       1  UNL1        0.0814
     48 H         121.7557  151.6056  148.3748 H       1  UNL1        0.0636
     49 H         121.5321  149.1984  147.9197 H       1  UNL1        0.0619
     50 H         120.7266  150.1491  143.8226 H       1  UNL1        0.0829
     51 H         116.4769  155.6869  148.0172 H       1  UNL1        0.0873
     52 H         117.2779  154.4183  147.0895 H       1  UNL1        0.0873
     53 H         121.0168  148.4253  145.6044 H       1  UNL1        0.0633
     54 H         115.8019  156.5749  142.8295 H       1  UNL1        0.0659
     55 H         116.2883  158.9435  143.8208 H       1  UNL1        0.0694
     56 H         115.4885  152.8599  143.5679 H       1  UNL1        0.0660
     57 H         116.2091  154.1699  142.6209 H       1  UNL1        0.0660
     58 H         114.6082  154.3878  143.4274 H       1  UNL1        0.0660
@<TRIPOS>UNITY_ATOM_ATTR
5 1
charge 1
@<TRIPOS>BOND
     1     1    23   ar
     2     1    26   ar
     3     2     6    1
     4     2    15    1
     5     3    24    1
     6     3    27    1
     7     4    16   ar
     8     4    20   ar
     9     5    17    1
    10     5    21    1
    11     5    28    1
    12     5    29    1
    13     6     8    1
    14     6     9    1
    15     6    10    1
    16     7     8    1
    17     7    11    1
    18     7    14    1
    19     7    16    1
    20     8    30    1
    21     8    31    1
    22     9    12    1
    23     9    32    1
    24     9    33    1
    25    10    13    1
    26    10    34    1
    27    10    35    1
    28    11    15    1
    29    11    36    1
    30    11    37    1
    31    12    13    1
    32    12    38    1
    33    12    39    1
    34    13    40    1
    35    13    41    1
    36    14    17    1
    37    14    42    1
    38    14    43    1
    39    15    44    1
    40    15    45    1
    41    16    18   ar
    42    17    46    1
    43    17    47    1
    44    18    19   ar
    45    18    48    1
    46    19    22   ar
    47    19    49    1
    48    20    22   ar
    49    20    50    1
    50    21    23    1
    51    21    51    1
    52    21    52    1
    53    22    53    1
    54    23    24   ar
    55    24    25   ar
    56    25    26   ar
    57    25    54    1
    58    26    55    1
    59    27    56    1
    60    27    57    1
    61    27    58    1
@<TRIPOS>MOLECULE
66553195
 58 61 0 0 0
SMALL
GASTEIGER

@<TRIPOS>ATOM
      1 S         116.5943  151.3786  143.3091 S.2     1  UNL1       -0.0926
      2 O         124.0818  154.9660  145.9657 O.3     1  UNL1       -0.3733
      3 O         115.0314  152.1153  146.7518 O.3     1  UNL1       -0.4941
      4 N         121.0547  151.3894  147.0014 N.ar    1  UNL1       -0.2593
      5 N         117.6104  153.9516  145.8218 N.4     1  UNL1        0.2308
      6 C         123.8340  154.1429  147.1101 C.3     1  UNL1        0.0704
      7 C         121.4798  153.6263  146.1295 C.3     1  UNL1        0.0224
      8 C         122.3248  154.0579  147.3651 C.3     1  UNL1       -0.0124
      9 C         124.5484  154.8079  148.2982 C.3     1  UNL1       -0.0237
     10 C         124.5761  152.8026  147.0421 C.3     1  UNL1       -0.0237
     11 C         121.9503  154.4642  144.9129 C.3     1  UNL1       -0.0181
     12 C         126.0216  154.4495  148.1147 C.3     1  UNL1       -0.0504
     13 C         126.0398  153.1644  147.2912 C.3     1  UNL1       -0.0504
     14 C         119.9856  153.9884  146.4512 C.3     1  UNL1       -0.0013
     15 C         123.4677  154.5247  144.7656 C.3     1  UNL1        0.0492
     16 C         121.5453  152.1044  145.9557 C.ar    1  UNL1        0.0478
     17 C         118.9797  153.5164  145.4029 C.3     1  UNL1       -0.0325
     18 C         121.9919  151.4655  144.8001 C.ar    1  UNL1       -0.0398
     19 C         121.9889  150.0717  144.7429 C.ar    1  UNL1       -0.0586
     20 C         121.0807  150.0383  146.9300 C.ar    1  UNL1        0.0279
     21 C         116.5365  153.7218  144.8057 C.3     1  UNL1        0.0021
     22 C         121.5337  149.3406  145.8294 C.ar    1  UNL1       -0.0436
     23 C         116.1552  152.2880  144.6904 C.ar    1  UNL1        0.0756
     24 C         115.4377  151.5331  145.5945 C.ar    1  UNL1        0.1353
     25 C         115.2533  150.1924  145.1494 C.ar    1  UNL1       -0.0124
     26 C         115.8328  149.9751  143.9172 C.ar    1  UNL1       -0.0203
     27 C         114.0522  151.3679  147.4728 C.3     1  UNL1        0.0788
     28 H         117.6137  154.9466  146.0715 H       1  UNL1        0.2017
     29 H         117.3364  153.4417  146.6752 H       1  UNL1        0.2017
     30 H         121.9924  155.0668  147.6524 H       1  UNL1        0.0302
     31 H         122.1216  153.4185  148.2338 H       1  UNL1        0.0302
     32 H         124.1910  154.3961  149.2502 H       1  UNL1        0.0293
     33 H         124.4145  155.8947  148.3200 H       1  UNL1        0.0293
     34 H         124.4837  152.2773  146.0899 H       1  UNL1        0.0293
     35 H         124.2290  152.1296  147.8359 H       1  UNL1        0.0293
     36 H         121.6058  155.4980  145.0565 H       1  UNL1        0.0296
     37 H         121.4982  154.1197  143.9763 H       1  UNL1        0.0296
     38 H         126.5220  154.3225  149.0800 H       1  UNL1        0.0266
     39 H         126.5472  155.2458  147.5752 H       1  UNL1        0.0266
     40 H         126.5567  153.3403  146.3405 H       1  UNL1        0.0266
     41 H         126.5677  152.3560  147.8069 H       1  UNL1        0.0266
     42 H         119.8962  155.0775  146.5673 H       1  UNL1        0.0326
     43 H         119.7005  153.5672  147.4258 H       1  UNL1        0.0326
     44 H         123.9012  153.5738  144.4479 H       1  UNL1        0.0560
     45 H         123.7210  155.2510  143.9856 H       1  UNL1        0.0560
     46 H         119.1765  153.9724  144.4284 H       1  UNL1        0.0814
     47 H         118.9529  152.4281  145.3102 H       1  UNL1        0.0814
     48 H         122.3588  152.0058  143.9356 H       1  UNL1        0.0636
     49 H         122.3551  149.5589  143.8563 H       1  UNL1        0.0619
     50 H         120.7172  149.5171  147.8116 H       1  UNL1        0.0829
     51 H         116.8807  154.1582  143.8618 H       1  UNL1        0.0873
     52 H         115.6759  154.3104  145.1436 H       1  UNL1        0.0873
     53 H         121.5382  148.2560  145.8194 H       1  UNL1        0.0633
     54 H         114.7299  149.4098  145.6851 H       1  UNL1        0.0659
     55 H         115.8432  149.0559  143.3451 H       1  UNL1        0.0694
     56 H         114.4811  150.4423  147.8700 H       1  UNL1        0.0660
     57 H         113.1744  151.1599  146.8508 H       1  UNL1        0.0660
     58 H         113.7249  151.9777  148.3204 H       1  UNL1        0.0660
@<TRIPOS>UNITY_ATOM_ATTR
5 1
charge 1
@<TRIPOS>BOND
     1     1    23   ar
     2     1    26   ar
     3     2     6    1
     4     2    15    1
     5     3    24    1
     6     3    27    1
     7     4    16   ar
     8     4    20   ar
     9     5    17    1
    10     5    21    1
    11     5    28    1
    12     5    29    1
    13     6     8    1
    14     6     9    1
    15     6    10    1
    16     7     8    1
    17     7    11    1
    18     7    14    1
    19     7    16    1
    20     8    30    1
    21     8    31    1
    22     9    12    1
    23     9    32    1
    24     9    33    1
    25    10    13    1
    26    10    34    1
    27    10    35    1
    28    11    15    1
    29    11    36    1
    30    11    37    1
    31    12    13    1
    32    12    38    1
    33    12    39    1
    34    13    40    1
    35    13    41    1
    36    14    17    1
    37    14    42    1
    38    14    43    1
    39    15    44    1
    40    15    45    1
    41    16    18   ar
    42    17    46    1
    43    17    47    1
    44    18    19   ar
    45    18    48    1
    46    19    22   ar
    47    19    49    1
    48    20    22   ar
    49    20    50    1
    50    21    23    1
    51    21    51    1
    52    21    52    1
    53    22    53    1
    54    23    24   ar
    55    24    25   ar
    56    25    26   ar
    57    25    54    1
    58    26    55    1
    59    27    56    1
    60    27    57    1
    61    27    58    1
@<TRIPOS>MOLECULE
66553195
 58 61 0 0 0
SMALL
GASTEIGER

@<TRIPOS>ATOM
      1 S         119.5124  151.5385  152.1563 S.2     1  UNL1       -0.0926
      2 O         123.7701  155.0062  145.7651 O.3     1  UNL1       -0.3733
      3 O         117.6541  154.8824  151.7059 O.3     1  UNL1       -0.4941
      4 N         120.5180  151.7354  145.2666 N.ar    1  UNL1       -0.2593
      5 N         118.3077  153.2676  149.0184 N.4     1  UNL1        0.2308
      6 C         123.9136  154.2258  146.9532 C.3     1  UNL1        0.0704
      7 C         121.3968  153.5357  146.6637 C.3     1  UNL1        0.0224
      8 C         122.5418  153.9821  147.6198 C.3     1  UNL1       -0.0124
      9 C         124.8315  155.0268  147.8951 C.3     1  UNL1       -0.0237
     10 C         124.7852  152.9888  146.7051 C.3     1  UNL1       -0.0237
     11 C         121.4689  154.4417  145.4005 C.3     1  UNL1       -0.0181
     12 C         126.2424  154.8295  147.3399 C.3     1  UNL1       -0.0504
     13 C         126.1909  153.5522  146.5063 C.3     1  UNL1       -0.0504
     14 C         120.0043  153.8148  147.3286 C.3     1  UNL1       -0.0013
     15 C         122.8642  154.4748  144.8062 C.3     1  UNL1        0.0492
     16 C         121.3970  152.0578  146.2489 C.ar    1  UNL1        0.0478
     17 C         119.6855  152.9388  148.5371 C.3     1  UNL1       -0.0325
     18 C         122.1306  151.0655  146.8965 C.ar    1  UNL1       -0.0398
     19 C         122.0227  149.7410  146.4715 C.ar    1  UNL1       -0.0586
     20 C         120.4451  150.4484  144.8549 C.ar    1  UNL1        0.0279
     21 C         117.8109  152.4025  150.1339 C.3     1  UNL1        0.0021
     22 C         121.1733  149.4241  145.4230 C.ar    1  UNL1       -0.0436
     23 C         118.4915  152.6998  151.4242 C.ar    1  UNL1        0.0756
     24 C         118.4114  153.8563  152.1719 C.ar    1  UNL1        0.1353
     25 C         119.2013  153.7873  153.3554 C.ar    1  UNL1       -0.0124
     26 C         119.8516  152.5768  153.4701 C.ar    1  UNL1       -0.0203
     27 C         117.3747  155.8917  152.6765 C.3     1  UNL1        0.0788
     28 H         117.6464  153.1935  148.2359 H       1  UNL1        0.2017
     29 H         118.2632  154.2433  149.3465 H       1  UNL1        0.2017
     30 H         122.2325  154.9485  148.0461 H       1  UNL1        0.0302
     31 H         122.6446  153.3115  148.4803 H       1  UNL1        0.0302
     32 H         124.7855  154.6284  148.9163 H       1  UNL1        0.0293
     33 H         124.5761  156.0914  147.9293 H       1  UNL1        0.0293
     34 H         124.4931  152.3970  145.8349 H       1  UNL1        0.0293
     35 H         124.7916  152.3353  147.5853 H       1  UNL1        0.0293
     36 H         121.2043  155.4683  145.6904 H       1  UNL1        0.0296
     37 H         120.7468  154.1419  144.6322 H       1  UNL1        0.0296
     38 H         126.9751  154.7554  148.1502 H       1  UNL1        0.0266
     39 H         126.5346  155.6774  146.7101 H       1  UNL1        0.0266
     40 H         126.3597  153.7903  145.4495 H       1  UNL1        0.0266
     41 H         126.9591  152.8335  146.8084 H       1  UNL1        0.0266
     42 H         119.2097  153.6814  146.5804 H       1  UNL1        0.0326
     43 H         119.9490  154.8698  147.6308 H       1  UNL1        0.0326
     44 H         123.1935  153.4928  144.4542 H       1  UNL1        0.0560
     45 H         122.8769  155.1457  143.9410 H       1  UNL1        0.0560
     46 H         119.6784  151.8743  148.2895 H       1  UNL1        0.0814
     47 H         120.3783  153.1296  149.3611 H       1  UNL1        0.0814
     48 H         122.7925  151.2764  147.7270 H       1  UNL1        0.0636
     49 H         122.6097  148.9612  146.9516 H       1  UNL1        0.0619
     50 H         119.7634  150.2603  144.0295 H       1  UNL1        0.0829
     51 H         117.9201  151.3614  149.8117 H       1  UNL1        0.0873
     52 H         116.7388  152.6122  150.2207 H       1  UNL1        0.0873
     53 H         121.0835  148.4066  145.0580 H       1  UNL1        0.0633
     54 H         119.3068  154.5694  154.0977 H       1  UNL1        0.0659
     55 H         120.5109  152.2539  154.2663 H       1  UNL1        0.0694
     56 H         116.6706  156.5994  152.2285 H       1  UNL1        0.0660
     57 H         118.2836  156.4424  152.9398 H       1  UNL1        0.0660
     58 H         116.9005  155.4655  153.5676 H       1  UNL1        0.0660
@<TRIPOS>UNITY_ATOM_ATTR
5 1
charge 1
@<TRIPOS>BOND
     1     1    23   ar
     2     1    26   ar
     3     2     6    1
     4     2    15    1
     5     3    24    1
     6     3    27    1
     7     4    16   ar
     8     4    20   ar
     9     5    17    1
    10     5    21    1
    11     5    28    1
    12     5    29    1
    13     6     8    1
    14     6     9    1
    15     6    10    1
    16     7     8    1
    17     7    11    1
    18     7    14    1
    19     7    16    1
    20     8    30    1
    21     8    31    1
    22     9    12    1
    23     9    32    1
    24     9    33    1
    25    10    13    1
    26    10    34    1
    27    10    35    1
    28    11    15    1
    29    11    36    1
    30    11    37    1
    31    12    13    1
    32    12    38    1
    33    12    39    1
    34    13    40    1
    35    13    41    1
    36    14    17    1
    37    14    42    1
    38    14    43    1
    39    15    44    1
    40    15    45    1
    41    16    18   ar
    42    17    46    1
    43    17    47    1
    44    18    19   ar
    45    18    48    1
    46    19    22   ar
    47    19    49    1
    48    20    22   ar
    49    20    50    1
    50    21    23    1
    51    21    51    1
    52    21    52    1
    53    22    53    1
    54    23    24   ar
    55    24    25   ar
    56    25    26   ar
    57    25    54    1
    58    26    55    1
    59    27    56    1
    60    27    57    1
    61    27    58    1
@<TRIPOS>MOLECULE
66553195
 58 61 0 0 0
SMALL
GASTEIGER

@<TRIPOS>ATOM
      1 S         119.5304  152.0514  152.1321 S.2     1  UNL1       -0.0926
      2 O         123.7446  155.0191  145.7094 O.3     1  UNL1       -0.3733
      3 O         117.3334  155.0204  151.0389 O.3     1  UNL1       -0.4941
      4 N         121.7970  151.1494  147.0291 N.ar    1  UNL1       -0.2593
      5 N         118.2423  153.0863  148.7086 N.4     1  UNL1        0.2308
      6 C         123.8156  154.1382  146.8351 C.3     1  UNL1        0.0704
      7 C         121.3467  153.4633  146.3726 C.3     1  UNL1        0.0224
      8 C         122.4107  153.9123  147.4194 C.3     1  UNL1       -0.0124
      9 C         124.7291  154.8147  147.8707 C.3     1  UNL1       -0.0237
     10 C         124.6230  152.8708  146.5261 C.3     1  UNL1       -0.0237
     11 C         121.4540  154.4538  145.1808 C.3     1  UNL1       -0.0181
     12 C         126.1473  154.5847  147.3510 C.3     1  UNL1       -0.0504
     13 C         126.0716  153.3506  146.4561 C.3     1  UNL1       -0.0504
     14 C         119.9065  153.6076  146.9706 C.3     1  UNL1       -0.0013
     15 C         122.8802  154.5920  144.6656 C.3     1  UNL1        0.0492
     16 C         121.5338  151.9887  145.9928 C.ar    1  UNL1        0.0478
     17 C         119.6357  152.7935  148.2391 C.3     1  UNL1       -0.0325
     18 C         121.3811  151.5000  144.6958 C.ar    1  UNL1       -0.0398
     19 C         121.5584  150.1385  144.4513 C.ar    1  UNL1       -0.0586
     20 C         121.9871  149.8355  146.7611 C.ar    1  UNL1        0.0279
     21 C         117.8395  152.3407  149.9434 C.3     1  UNL1        0.0021
     22 C         121.8764  149.2884  145.4994 C.ar    1  UNL1       -0.0436
     23 C         118.4235  152.9376  151.1760 C.ar    1  UNL1        0.0756
     24 C         118.1781  154.1891  151.7023 C.ar    1  UNL1        0.1353
     25 C         118.9128  154.4225  152.9001 C.ar    1  UNL1       -0.0124
     26 C         119.6885  153.3366  153.2470 C.ar    1  UNL1       -0.0203
     27 C         116.8957  156.1429  151.8053 C.3     1  UNL1        0.0788
     28 H         117.5734  152.8639  147.9637 H       1  UNL1        0.2017
     29 H         118.1327  154.0898  148.9151 H       1  UNL1        0.2017
     30 H         122.0713  154.8719  147.8369 H       1  UNL1        0.0302
     31 H         122.4708  153.2217  148.2690 H       1  UNL1        0.0302
     32 H         124.6231  154.3410  148.8546 H       1  UNL1        0.0293
     33 H         124.5261  155.8854  147.9798 H       1  UNL1        0.0293
     34 H         124.3508  152.3746  145.5921 H       1  UNL1        0.0293
     35 H         124.5252  152.1430  147.3409 H       1  UNL1        0.0293
     36 H         121.1375  155.4475  145.5289 H       1  UNL1        0.0296
     37 H         120.7742  154.1938  144.3626 H       1  UNL1        0.0296
     38 H         126.8526  154.4459  148.1767 H       1  UNL1        0.0266
     39 H         126.4900  155.4479  146.7689 H       1  UNL1        0.0266
     40 H         126.3344  153.6213  145.4268 H       1  UNL1        0.0266
     41 H         126.7671  152.5688  146.7775 H       1  UNL1        0.0266
     42 H         119.1691  153.3255  146.2057 H       1  UNL1        0.0326
     43 H         119.7188  154.6668  147.1954 H       1  UNL1        0.0326
     44 H         123.2540  153.6711  144.2100 H       1  UNL1        0.0560
     45 H         122.9094  155.3607  143.8860 H       1  UNL1        0.0560
     46 H         119.6618  151.7174  148.0597 H       1  UNL1        0.0814
     47 H         120.3144  153.0666  149.0505 H       1  UNL1        0.0814
     48 H         121.1403  152.1407  143.8551 H       1  UNL1        0.0636
     49 H         121.4613  149.7464  143.4414 H       1  UNL1        0.0619
     50 H         122.2407  149.2155  147.6171 H       1  UNL1        0.0829
     51 H         118.1055  151.2887  149.7946 H       1  UNL1        0.0873
     52 H         116.7461  152.4034  149.9861 H       1  UNL1        0.0873
     53 H         122.0384  148.2286  145.3340 H       1  UNL1        0.0633
     54 H         118.8953  155.3294  153.4925 H       1  UNL1        0.0659
     55 H         120.3425  153.2384  154.1046 H       1  UNL1        0.0694
     56 H         117.7231  156.8352  151.9914 H       1  UNL1        0.0660
     57 H         116.4290  155.8250  152.7442 H       1  UNL1        0.0660
     58 H         116.1397  156.6727  151.2180 H       1  UNL1        0.0660
@<TRIPOS>UNITY_ATOM_ATTR
5 1
charge 1
@<TRIPOS>BOND
     1     1    23   ar
     2     1    26   ar
     3     2     6    1
     4     2    15    1
     5     3    24    1
     6     3    27    1
     7     4    16   ar
     8     4    20   ar
     9     5    17    1
    10     5    21    1
    11     5    28    1
    12     5    29    1
    13     6     8    1
    14     6     9    1
    15     6    10    1
    16     7     8    1
    17     7    11    1
    18     7    14    1
    19     7    16    1
    20     8    30    1
    21     8    31    1
    22     9    12    1
    23     9    32    1
    24     9    33    1
    25    10    13    1
    26    10    34    1
    27    10    35    1
    28    11    15    1
    29    11    36    1
    30    11    37    1
    31    12    13    1
    32    12    38    1
    33    12    39    1
    34    13    40    1
    35    13    41    1
    36    14    17    1
    37    14    42    1
    38    14    43    1
    39    15    44    1
    40    15    45    1
    41    16    18   ar
    42    17    46    1
    43    17    47    1
    44    18    19   ar
    45    18    48    1
    46    19    22   ar
    47    19    49    1
    48    20    22   ar
    49    20    50    1
    50    21    23    1
    51    21    51    1
    52    21    52    1
    53    22    53    1
    54    23    24   ar
    55    24    25   ar
    56    25    26   ar
    57    25    54    1
    58    26    55    1
    59    27    56    1
    60    27    57    1
    61    27    58    1
@<TRIPOS>MOLECULE
66553195
 58 61 0 0 0
SMALL
GASTEIGER

@<TRIPOS>ATOM
      1 S         117.2603  155.2882  143.5794 S.2     1  UNL1       -0.0926
      2 O         124.2312  154.6690  145.8050 O.3     1  UNL1       -0.3733
      3 O         117.8160  158.1779  146.0708 O.3     1  UNL1       -0.4941
      4 N         121.4743  151.3718  147.3206 N.ar    1  UNL1       -0.2593
      5 N         118.3389  155.5944  147.3655 N.4     1  UNL1        0.2308
      6 C         124.0234  153.9504  147.0277 C.3     1  UNL1        0.0704
      7 C         121.5558  153.5951  146.2990 C.3     1  UNL1        0.0224
      8 C         122.5405  154.0277  147.4257 C.3     1  UNL1       -0.0124
      9 C         124.9020  154.6275  148.0932 C.3     1  UNL1       -0.0237
     10 C         124.6450  152.5494  146.9923 C.3     1  UNL1       -0.0237
     11 C         121.9665  154.3634  145.0165 C.3     1  UNL1       -0.0181
     12 C         126.3162  154.1245  147.8110 C.3     1  UNL1       -0.0504
     13 C         126.1499  152.8017  147.0677 C.3     1  UNL1       -0.0504
     14 C         120.0758  153.9368  146.6887 C.3     1  UNL1       -0.0013
     15 C         123.4517  154.2180  144.7048 C.3     1  UNL1        0.0492
     16 C         121.5585  152.0624  146.1537 C.ar    1  UNL1        0.0478
     17 C         119.7709  155.4047  146.9688 C.3     1  UNL1       -0.0325
     18 C         121.5632  151.4001  144.9260 C.ar    1  UNL1       -0.0398
     19 C         121.5347  150.0060  144.9003 C.ar    1  UNL1       -0.0586
     20 C         121.4577  150.0198  147.2686 C.ar    1  UNL1        0.0279
     21 C         117.2828  155.2778  146.3519 C.3     1  UNL1        0.0021
     22 C         121.4876  149.2988  146.0921 C.ar    1  UNL1       -0.0436
     23 C         117.4108  156.0693  145.0954 C.ar    1  UNL1        0.0756
     24 C         117.6446  157.4228  144.9527 C.ar    1  UNL1        0.1353
     25 C         117.6948  157.8170  143.5838 C.ar    1  UNL1       -0.0124
     26 C         117.4973  156.7511  142.7320 C.ar    1  UNL1       -0.0203
     27 C         118.0344  159.5660  145.8171 C.3     1  UNL1        0.0788
     28 H         118.2133  156.5942  147.5857 H       1  UNL1        0.2017
     29 H         118.1416  155.0798  148.2318 H       1  UNL1        0.2017
     30 H         122.3451  155.0816  147.6602 H       1  UNL1        0.0302
     31 H         122.3612  153.4772  148.3575 H       1  UNL1        0.0302
     32 H         124.6018  154.3174  149.1018 H       1  UNL1        0.0293
     33 H         124.8630  155.7209  148.0428 H       1  UNL1        0.0293
     34 H         124.4120  151.9695  146.0970 H       1  UNL1        0.0293
     35 H         124.3325  151.9670  147.8677 H       1  UNL1        0.0293
     36 H         121.7895  155.4347  145.1702 H       1  UNL1        0.0296
     37 H         121.3592  154.0774  144.1512 H       1  UNL1        0.0296
     38 H         126.8838  154.0015  148.7390 H       1  UNL1        0.0266
     39 H         126.8624  154.8393  147.1848 H       1  UNL1        0.0266
     40 H         126.5727  152.8871  146.0598 H       1  UNL1        0.0266
     41 H         126.6681  151.9804  147.5727 H       1  UNL1        0.0266
     42 H         119.7858  153.3607  147.5787 H       1  UNL1        0.0326
     43 H         119.4266  153.5831  145.8770 H       1  UNL1        0.0326
     44 H         123.7304  153.1982  144.4279 H       1  UNL1        0.0560
     45 H         123.7028  154.8532  143.8485 H       1  UNL1        0.0560
     46 H         120.3454  155.7806  147.8190 H       1  UNL1        0.0814
     47 H         119.9599  156.0512  146.1099 H       1  UNL1        0.0814
     48 H         121.5952  151.9253  143.9787 H       1  UNL1        0.0636
     49 H         121.5541  149.4748  143.9518 H       1  UNL1        0.0619
     50 H         121.4191  149.5168  148.2310 H       1  UNL1        0.0829
     51 H         116.3286  155.5136  146.8368 H       1  UNL1        0.0873
     52 H         117.3077  154.1962  146.1883 H       1  UNL1        0.0873
     53 H         121.4740  148.2145  146.1025 H       1  UNL1        0.0633
     54 H         117.8647  158.8209  143.2139 H       1  UNL1        0.0659
     55 H         117.4807  156.7643  141.6493 H       1  UNL1        0.0694
     56 H         118.1456  160.0671  146.7834 H       1  UNL1        0.0660
     57 H         117.1777  160.0131  145.3020 H       1  UNL1        0.0660
     58 H         118.9600  159.7200  145.2520 H       1  UNL1        0.0660
@<TRIPOS>UNITY_ATOM_ATTR
5 1
charge 1
@<TRIPOS>BOND
     1     1    23   ar
     2     1    26   ar
     3     2     6    1
     4     2    15    1
     5     3    24    1
     6     3    27    1
     7     4    16   ar
     8     4    20   ar
     9     5    17    1
    10     5    21    1
    11     5    28    1
    12     5    29    1
    13     6     8    1
    14     6     9    1
    15     6    10    1
    16     7     8    1
    17     7    11    1
    18     7    14    1
    19     7    16    1
    20     8    30    1
    21     8    31    1
    22     9    12    1
    23     9    32    1
    24     9    33    1
    25    10    13    1
    26    10    34    1
    27    10    35    1
    28    11    15    1
    29    11    36    1
    30    11    37    1
    31    12    13    1
    32    12    38    1
    33    12    39    1
    34    13    40    1
    35    13    41    1
    36    14    17    1
    37    14    42    1
    38    14    43    1
    39    15    44    1
    40    15    45    1
    41    16    18   ar
    42    17    46    1
    43    17    47    1
    44    18    19   ar
    45    18    48    1
    46    19    22   ar
    47    19    49    1
    48    20    22   ar
    49    20    50    1
    50    21    23    1
    51    21    51    1
    52    21    52    1
    53    22    53    1
    54    23    24   ar
    55    24    25   ar
    56    25    26   ar
    57    25    54    1
    58    26    55    1
    59    27    56    1
    60    27    57    1
    61    27    58    1
@<TRIPOS>MOLECULE
66553195
 58 61 0 0 0
SMALL
GASTEIGER

@<TRIPOS>ATOM
      1 S         117.4468  155.0678  143.5357 S.2     1  UNL1       -0.0926
      2 O         124.0821  154.8933  145.8842 O.3     1  UNL1       -0.3733
      3 O         116.6915  157.9333  145.9981 O.3     1  UNL1       -0.4941
      4 N         121.4258  151.4269  147.2560 N.ar    1  UNL1       -0.2593
      5 N         118.0935  155.4599  147.2926 N.4     1  UNL1        0.2308
      6 C         123.8840  154.1292  147.0808 C.3     1  UNL1        0.0704
      7 C         121.4548  153.6757  146.2882 C.3     1  UNL1        0.0224
      8 C         122.3908  154.1262  147.4483 C.3     1  UNL1       -0.0124
      9 C         124.7108  154.8114  148.1835 C.3     1  UNL1       -0.0237
     10 C         124.5698  152.7590  147.0164 C.3     1  UNL1       -0.0237
     11 C         121.8534  154.4951  145.0346 C.3     1  UNL1       -0.0181
     12 C         126.1518  154.3816  147.9141 C.3     1  UNL1       -0.0504
     13 C         126.0600  153.0762  147.1285 C.3     1  UNL1       -0.0504
     14 C         119.9526  153.9308  146.6552 C.3     1  UNL1       -0.0013
     15 C         123.3508  154.4369  144.7537 C.3     1  UNL1        0.0492
     16 C         121.5346  152.1480  146.1095 C.ar    1  UNL1        0.0478
     17 C         119.5367  155.3797  146.8919 C.3     1  UNL1       -0.0325
     18 C         121.6247  151.5155  144.8694 C.ar    1  UNL1       -0.0398
     19 C         121.6547  150.1224  144.8124 C.ar    1  UNL1       -0.0586
     20 C         121.4659  150.0770  147.1740 C.ar    1  UNL1        0.0279
     21 C         117.0679  155.0288  146.2883 C.3     1  UNL1        0.0021
     22 C         121.5797  149.3858  145.9849 C.ar    1  UNL1       -0.0436
     23 C         117.1194  155.8280  145.0333 C.ar    1  UNL1        0.0756
     24 C         116.9348  157.1877  144.8890 C.ar    1  UNL1        0.1353
     25 C         117.0695  157.6067  143.5338 C.ar    1  UNL1       -0.0124
     26 C         117.3467  156.5499  142.6927 C.ar    1  UNL1       -0.0203
     27 C         116.2730  159.2709  145.7246 C.3     1  UNL1        0.0788
     28 H         117.8772  156.4455  147.5039 H       1  UNL1        0.2017
     29 H         117.9442  154.9411  148.1661 H       1  UNL1        0.2017
     30 H         122.1348  155.1616  147.7068 H       1  UNL1        0.0302
     31 H         122.2203  153.5409  148.3603 H       1  UNL1        0.0302
     32 H         124.4067  154.4562  149.1760 H       1  UNL1        0.0293
     33 H         124.6230  155.9030  148.1659 H       1  UNL1        0.0293
     34 H         124.3810  152.1962  146.1001 H       1  UNL1        0.0293
     35 H         124.2680  152.1366  147.8677 H       1  UNL1        0.0293
     36 H         121.6175  155.5517  145.2103 H       1  UNL1        0.0296
     37 H         121.2811  154.1990  144.1490 H       1  UNL1        0.0296
     38 H         126.7077  154.2557  148.8487 H       1  UNL1        0.0266
     39 H         126.6760  155.1391  147.3202 H       1  UNL1        0.0266
     40 H         126.4965  153.2115  146.1319 H       1  UNL1        0.0266
     41 H         126.6060  152.2638  147.6184 H       1  UNL1        0.0266
     42 H         119.6931  153.3575  147.5566 H       1  UNL1        0.0326
     43 H         119.3385  153.5125  145.8472 H       1  UNL1        0.0326
     44 H         123.6892  153.4423  144.4528 H       1  UNL1        0.0560
     45 H         123.5865  155.1103  143.9227 H       1  UNL1        0.0560
     46 H         120.0854  155.8263  147.7248 H       1  UNL1        0.0814
     47 H         119.6637  156.0129  146.0113 H       1  UNL1        0.0814
     48 H         121.6792  152.0638  143.9364 H       1  UNL1        0.0636
     49 H         121.7406  149.6148  143.8546 H       1  UNL1        0.0619
     50 H         121.4017  149.5502  148.1223 H       1  UNL1        0.0829
     51 H         116.0975  155.1704  146.7779 H       1  UNL1        0.0873
     52 H         117.1944  153.9538  146.1294 H       1  UNL1        0.0873
     53 H         121.6086  148.3018  145.9710 H       1  UNL1        0.0633
     54 H         116.9767  158.6223  143.1680 H       1  UNL1        0.0659
     55 H         117.4952  156.5801  141.6203 H       1  UNL1        0.0694
     56 H         116.0171  159.7416  146.6786 H       1  UNL1        0.0660
     57 H         115.3784  159.2852  145.0923 H       1  UNL1        0.0660
     58 H         117.0850  159.8490  145.2715 H       1  UNL1        0.0660
@<TRIPOS>UNITY_ATOM_ATTR
5 1
charge 1
@<TRIPOS>BOND
     1     1    23   ar
     2     1    26   ar
     3     2     6    1
     4     2    15    1
     5     3    24    1
     6     3    27    1
     7     4    16   ar
     8     4    20   ar
     9     5    17    1
    10     5    21    1
    11     5    28    1
    12     5    29    1
    13     6     8    1
    14     6     9    1
    15     6    10    1
    16     7     8    1
    17     7    11    1
    18     7    14    1
    19     7    16    1
    20     8    30    1
    21     8    31    1
    22     9    12    1
    23     9    32    1
    24     9    33    1
    25    10    13    1
    26    10    34    1
    27    10    35    1
    28    11    15    1
    29    11    36    1
    30    11    37    1
    31    12    13    1
    32    12    38    1
    33    12    39    1
    34    13    40    1
    35    13    41    1
    36    14    17    1
    37    14    42    1
    38    14    43    1
    39    15    44    1
    40    15    45    1
    41    16    18   ar
    42    17    46    1
    43    17    47    1
    44    18    19   ar
    45    18    48    1
    46    19    22   ar
    47    19    49    1
    48    20    22   ar
    49    20    50    1
    50    21    23    1
    51    21    51    1
    52    21    52    1
    53    22    53    1
    54    23    24   ar
    55    24    25   ar
    56    25    26   ar
    57    25    54    1
    58    26    55    1
    59    27    56    1
    60    27    57    1
    61    27    58    1
@<TRIPOS>MOLECULE
66553195
 58 61 0 0 0
SMALL
GASTEIGER

@<TRIPOS>ATOM
      1 S         114.5998  156.5601  146.1674 S.2     1  UNL1       -0.0926
      2 O         124.1255  154.8094  145.8297 O.3     1  UNL1       -0.3733
      3 O         116.2490  154.0169  148.5484 O.3     1  UNL1       -0.4941
      4 N         121.3126  151.7767  144.6434 N.ar    1  UNL1       -0.2593
      5 N         117.5729  154.0208  145.9845 N.4     1  UNL1        0.2308
      6 C         123.8845  154.0807  147.0366 C.3     1  UNL1        0.0704
      7 C         121.4516  153.6647  146.2047 C.3     1  UNL1        0.0224
      8 C         122.3841  154.0999  147.3742 C.3     1  UNL1       -0.0124
      9 C         124.6963  154.7743  148.1434 C.3     1  UNL1       -0.0237
     10 C         124.5505  152.6995  147.0175 C.3     1  UNL1       -0.0237
     11 C         121.8967  154.4792  144.9573 C.3     1  UNL1       -0.0181
     12 C         126.1360  154.3120  147.9233 C.3     1  UNL1       -0.0504
     13 C         126.0423  152.9974  147.1533 C.3     1  UNL1       -0.0504
     14 C         119.9818  154.0424  146.5769 C.3     1  UNL1       -0.0013
     15 C         123.3920  154.3546  144.6993 C.3     1  UNL1        0.0492
     16 C         121.4670  152.1543  145.9368 C.ar    1  UNL1        0.0478
     17 C         118.9518  153.7696  145.4739 C.3     1  UNL1       -0.0325
     18 C         121.5123  151.2086  146.9622 C.ar    1  UNL1       -0.0398
     19 C         121.4792  149.8520  146.6438 C.ar    1  UNL1       -0.0586
     20 C         121.3085  150.4534  144.3572 C.ar    1  UNL1        0.0279
     21 C         117.1442  155.4446  146.1241 C.3     1  UNL1        0.0021
     22 C         121.3873  149.4632  145.3159 C.ar    1  UNL1       -0.0436
     23 C         115.8153  155.5340  146.7961 C.ar    1  UNL1        0.0756
     24 C         115.3954  154.8845  147.9410 C.ar    1  UNL1        0.1353
     25 C         114.0613  155.2335  148.2984 C.ar    1  UNL1       -0.0124
     26 C         113.5128  156.1403  147.4166 C.ar    1  UNL1       -0.0203
     27 C         115.7905  153.5252  149.8083 C.3     1  UNL1        0.0788
     28 H         117.4417  153.5696  146.9038 H       1  UNL1        0.2017
     29 H         116.8948  153.5573  145.3671 H       1  UNL1        0.2017
     30 H         122.1279  155.1420  147.6186 H       1  UNL1        0.0302
     31 H         122.1875  153.5339  148.2913 H       1  UNL1        0.0302
     32 H         124.3602  154.4501  149.1362 H       1  UNL1        0.0293
     33 H         124.6294  155.8666  148.0969 H       1  UNL1        0.0293
     34 H         124.3676  152.1193  146.1103 H       1  UNL1        0.0293
     35 H         124.2256  152.1026  147.8783 H       1  UNL1        0.0293
     36 H         121.6718  155.5398  145.1364 H       1  UNL1        0.0296
     37 H         121.3495  154.1944  144.0519 H       1  UNL1        0.0296
     38 H         126.6596  154.1879  148.8768 H       1  UNL1        0.0266
     39 H         126.6941  155.0504  147.3365 H       1  UNL1        0.0266
     40 H         126.4992  153.1132  146.1635 H       1  UNL1        0.0266
     41 H         126.5678  152.1847  147.6647 H       1  UNL1        0.0266
     42 H         119.9487  155.1081  146.8362 H       1  UNL1        0.0326
     43 H         119.6864  153.5013  147.4867 H       1  UNL1        0.0326
     44 H         123.6875  153.3368  144.4294 H       1  UNL1        0.0560
     45 H         123.6675  154.9962  143.8556 H       1  UNL1        0.0560
     46 H         119.0921  154.4015  144.5923 H       1  UNL1        0.0814
     47 H         118.9466  152.7216  145.1674 H       1  UNL1        0.0814
     48 H         121.5832  151.4921  148.0066 H       1  UNL1        0.0636
     49 H         121.5384  149.1022  147.4292 H       1  UNL1        0.0619
     50 H         121.2376  150.2040  143.3016 H       1  UNL1        0.0829
     51 H         117.1388  155.8700  145.1153 H       1  UNL1        0.0873
     52 H         117.8943  155.9635  146.7284 H       1  UNL1        0.0873
     53 H         121.3807  148.4150  145.0362 H       1  UNL1        0.0633
     54 H         113.5079  154.8552  149.1495 H       1  UNL1        0.0659
     55 H         112.5221  156.5766  147.4478 H       1  UNL1        0.0694
     56 H         115.6123  154.3453  150.5121 H       1  UNL1        0.0660
     57 H         116.5796  152.8913  150.2241 H       1  UNL1        0.0660
     58 H         114.8947  152.9078  149.6849 H       1  UNL1        0.0660
@<TRIPOS>UNITY_ATOM_ATTR
5 1
charge 1
@<TRIPOS>BOND
     1     1    23   ar
     2     1    26   ar
     3     2     6    1
     4     2    15    1
     5     3    24    1
     6     3    27    1
     7     4    16   ar
     8     4    20   ar
     9     5    17    1
    10     5    21    1
    11     5    28    1
    12     5    29    1
    13     6     8    1
    14     6     9    1
    15     6    10    1
    16     7     8    1
    17     7    11    1
    18     7    14    1
    19     7    16    1
    20     8    30    1
    21     8    31    1
    22     9    12    1
    23     9    32    1
    24     9    33    1
    25    10    13    1
    26    10    34    1
    27    10    35    1
    28    11    15    1
    29    11    36    1
    30    11    37    1
    31    12    13    1
    32    12    38    1
    33    12    39    1
    34    13    40    1
    35    13    41    1
    36    14    17    1
    37    14    42    1
    38    14    43    1
    39    15    44    1
    40    15    45    1
    41    16    18   ar
    42    17    46    1
    43    17    47    1
    44    18    19   ar
    45    18    48    1
    46    19    22   ar
    47    19    49    1
    48    20    22   ar
    49    20    50    1
    50    21    23    1
    51    21    51    1
    52    21    52    1
    53    22    53    1
    54    23    24   ar
    55    24    25   ar
    56    25    26   ar
    57    25    54    1
    58    26    55    1
    59    27    56    1
    60    27    57    1
    61    27    58    1
@<TRIPOS>MOLECULE
66553195
 58 61 0 0 0
SMALL
GASTEIGER

@<TRIPOS>ATOM
      1 S         117.1281  156.9967  144.9817 S.2     1  UNL1       -0.0926
      2 O         124.1659  154.8397  145.8538 O.3     1  UNL1       -0.3733
      3 O         117.4157  159.4097  147.9691 O.3     1  UNL1       -0.4941
      4 N         121.5928  151.3165  147.1507 N.ar    1  UNL1       -0.2593
      5 N         118.1550  155.1938  147.2975 N.4     1  UNL1        0.2308
      6 C         123.9778  154.0479  147.0338 C.3     1  UNL1        0.0704
      7 C         121.5513  153.5869  146.2368 C.3     1  UNL1        0.0224
      8 C         122.4849  154.0248  147.4037 C.3     1  UNL1       -0.0124
      9 C         124.8009  154.7141  148.1491 C.3     1  UNL1       -0.0237
     10 C         124.6756  152.6855  146.9391 C.3     1  UNL1       -0.0237
     11 C         121.9346  154.4436  145.0041 C.3     1  UNL1       -0.0181
     12 C         126.2450  154.3033  147.8675 C.3     1  UNL1       -0.0504
     13 C         126.1634  153.0103  147.0609 C.3     1  UNL1       -0.0504
     14 C         120.0460  153.8111  146.6032 C.3     1  UNL1       -0.0013
     15 C         123.4318  154.4058  144.7163 C.3     1  UNL1        0.0492
     16 C         121.6540  152.0659  146.0186 C.ar    1  UNL1        0.0478
     17 C         119.6346  155.2128  147.0474 C.3     1  UNL1       -0.0325
     18 C         121.7197  151.4641  144.7621 C.ar    1  UNL1       -0.0398
     19 C         121.7749  150.0733  144.6720 C.ar    1  UNL1       -0.0586
     20 C         121.6582  149.9699  147.0364 C.ar    1  UNL1        0.0279
     21 C         117.5517  156.4993  147.7113 C.3     1  UNL1        0.0021
     22 C         121.7501  149.3087  145.8287 C.ar    1  UNL1       -0.0436
     23 C         117.3710  157.4892  146.6074 C.ar    1  UNL1        0.0756
     24 C         117.2988  158.8626  146.7332 C.ar    1  UNL1        0.1353
     25 C         117.1089  159.5123  145.4793 C.ar    1  UNL1       -0.0124
     26 C         117.0085  158.6117  144.4415 C.ar    1  UNL1       -0.0203
     27 C         117.1006  160.7988  148.0373 C.3     1  UNL1        0.0788
     28 H         117.9458  154.4975  148.0237 H       1  UNL1        0.2017
     29 H         117.6612  154.8849  146.4499 H       1  UNL1        0.2017
     30 H         122.2220  155.0548  147.6778 H       1  UNL1        0.0302
     31 H         122.3196  153.4236  148.3062 H       1  UNL1        0.0302
     32 H         124.5023  154.3354  149.1345 H       1  UNL1        0.0293
     33 H         124.7035  155.8050  148.1544 H       1  UNL1        0.0293
     34 H         124.4923  152.1423  146.0099 H       1  UNL1        0.0293
     35 H         124.3784  152.0417  147.7759 H       1  UNL1        0.0293
     36 H         121.6815  155.4914  145.2080 H       1  UNL1        0.0296
     37 H         121.3643  154.1626  144.1124 H       1  UNL1        0.0296
     38 H         126.8062  154.1680  148.7977 H       1  UNL1        0.0266
     39 H         126.7592  155.0756  147.2839 H       1  UNL1        0.0266
     40 H         126.6028  153.1633  146.0682 H       1  UNL1        0.0266
     41 H         126.7123  152.1935  147.5402 H       1  UNL1        0.0266
     42 H         119.7601  153.1209  147.4102 H       1  UNL1        0.0326
     43 H         119.4312  153.5224  145.7378 H       1  UNL1        0.0326
     44 H         123.7762  153.4210  144.3904 H       1  UNL1        0.0560
     45 H         123.6586  155.1004  143.9004 H       1  UNL1        0.0560
     46 H         120.1037  155.5023  147.9913 H       1  UNL1        0.0814
     47 H         119.8282  155.9657  146.2810 H       1  UNL1        0.0814
     48 H         121.7363  152.0347  143.8411 H       1  UNL1        0.0636
     49 H         121.8417  149.5891  143.7007 H       1  UNL1        0.0619
     50 H         121.6340  149.4207  147.9738 H       1  UNL1        0.0829
     51 H         118.1776  156.8944  148.5187 H       1  UNL1        0.0873
     52 H         116.5714  156.2511  148.1338 H       1  UNL1        0.0873
     53 H         121.8006  148.2260  145.7888 H       1  UNL1        0.0633
     54 H         117.0392  160.5822  145.3224 H       1  UNL1        0.0659
     55 H         116.8560  158.8307  143.3918 H       1  UNL1        0.0694
     56 H         117.1472  161.1007  149.0880 H       1  UNL1        0.0660
     57 H         116.0835  160.9926  147.6788 H       1  UNL1        0.0660
     58 H         117.8330  161.3947  147.4831 H       1  UNL1        0.0660
@<TRIPOS>UNITY_ATOM_ATTR
5 1
charge 1
@<TRIPOS>BOND
     1     1    23   ar
     2     1    26   ar
     3     2     6    1
     4     2    15    1
     5     3    24    1
     6     3    27    1
     7     4    16   ar
     8     4    20   ar
     9     5    17    1
    10     5    21    1
    11     5    28    1
    12     5    29    1
    13     6     8    1
    14     6     9    1
    15     6    10    1
    16     7     8    1
    17     7    11    1
    18     7    14    1
    19     7    16    1
    20     8    30    1
    21     8    31    1
    22     9    12    1
    23     9    32    1
    24     9    33    1
    25    10    13    1
    26    10    34    1
    27    10    35    1
    28    11    15    1
    29    11    36    1
    30    11    37    1
    31    12    13    1
    32    12    38    1
    33    12    39    1
    34    13    40    1
    35    13    41    1
    36    14    17    1
    37    14    42    1
    38    14    43    1
    39    15    44    1
    40    15    45    1
    41    16    18   ar
    42    17    46    1
    43    17    47    1
    44    18    19   ar
    45    18    48    1
    46    19    22   ar
    47    19    49    1
    48    20    22   ar
    49    20    50    1
    50    21    23    1
    51    21    51    1
    52    21    52    1
    53    22    53    1
    54    23    24   ar
    55    24    25   ar
    56    25    26   ar
    57    25    54    1
    58    26    55    1
    59    27    56    1
    60    27    57    1
    61    27    58    1
@<TRIPOS>MOLECULE
66553195
 58 61 0 0 0
SMALL
GASTEIGER

@<TRIPOS>ATOM
      1 S         116.0298  154.4684  150.8412 S.2     1  UNL1       -0.0926
      2 O         124.0230  154.9194  145.8396 O.3     1  UNL1       -0.3733
      3 O         115.6857  156.6174  147.6526 O.3     1  UNL1       -0.4941
      4 N         121.4889  151.3624  147.1842 N.ar    1  UNL1       -0.2593
      5 N         118.0938  155.2977  147.4766 N.4     1  UNL1        0.2308
      6 C         123.8775  154.1177  147.0185 C.3     1  UNL1        0.0704
      7 C         121.4326  153.6388  146.2855 C.3     1  UNL1        0.0224
      8 C         122.3971  154.0723  147.4303 C.3     1  UNL1       -0.0124
      9 C         124.7225  154.7853  148.1164 C.3     1  UNL1       -0.0237
     10 C         124.5869  152.7637  146.8951 C.3     1  UNL1       -0.0237
     11 C         121.7749  154.5053  145.0485 C.3     1  UNL1       -0.0181
     12 C         126.1629  154.3905  147.7962 C.3     1  UNL1       -0.0504
     13 C         126.0736  153.1046  146.9791 C.3     1  UNL1       -0.0504
     14 C         119.9440  153.8513  146.7249 C.3     1  UNL1       -0.0013
     15 C         123.2641  154.4824  144.7194 C.3     1  UNL1        0.0492
     16 C         121.5370  152.1196  146.0570 C.ar    1  UNL1        0.0478
     17 C         119.4894  155.2905  146.9500 C.3     1  UNL1       -0.0325
     18 C         121.5918  151.5271  144.7954 C.ar    1  UNL1       -0.0398
     19 C         121.6493  150.1373  144.6943 C.ar    1  UNL1       -0.0586
     20 C         121.5554  150.0168  147.0590 C.ar    1  UNL1        0.0279
     21 C         117.9398  155.1299  148.9546 C.3     1  UNL1        0.0021
     22 C         121.6371  149.3644  145.8456 C.ar    1  UNL1       -0.0436
     23 C         116.5160  155.2473  149.3923 C.ar    1  UNL1        0.0756
     24 C         115.4680  155.9384  148.8117 C.ar    1  UNL1        0.1353
     25 C         114.2623  155.8169  149.5637 C.ar    1  UNL1       -0.0124
     26 C         114.4308  155.0444  150.6919 C.ar    1  UNL1       -0.0203
     27 C         114.5336  157.2840  147.1336 C.3     1  UNL1        0.0788
     28 H         117.5126  154.5898  147.0098 H       1  UNL1        0.2017
     29 H         117.6315  156.1920  147.2469 H       1  UNL1        0.2017
     30 H         122.1270  155.0926  147.7315 H       1  UNL1        0.0302
     31 H         122.2674  153.4552  148.3281 H       1  UNL1        0.0302
     32 H         124.4529  154.3979  149.1068 H       1  UNL1        0.0293
     33 H         124.6143  155.8751  148.1313 H       1  UNL1        0.0293
     34 H         124.3841  152.2249  145.9674 H       1  UNL1        0.0293
     35 H         124.3192  152.1106  147.7347 H       1  UNL1        0.0293
     36 H         121.5256  155.5511  145.2674 H       1  UNL1        0.0296
     37 H         121.1800  154.2268  144.1722 H       1  UNL1        0.0296
     38 H         126.7469  154.2511  148.7117 H       1  UNL1        0.0266
     39 H         126.6563  155.1732  147.2087 H       1  UNL1        0.0266
     40 H         126.4833  153.2729  145.9762 H       1  UNL1        0.0266
     41 H         126.6451  152.2897  147.4345 H       1  UNL1        0.0266
     42 H         119.7631  153.2791  147.6447 H       1  UNL1        0.0326
     43 H         119.2836  153.4068  145.9656 H       1  UNL1        0.0326
     44 H         123.6098  153.5030  144.3795 H       1  UNL1        0.0560
     45 H         123.4620  155.1835  143.9015 H       1  UNL1        0.0560
     46 H         120.1085  155.8475  147.6568 H       1  UNL1        0.0814
     47 H         119.4459  155.8385  146.0045 H       1  UNL1        0.0814
     48 H         121.5979  152.1040  143.8782 H       1  UNL1        0.0636
     49 H         121.7077  149.6605  143.7188 H       1  UNL1        0.0619
     50 H         121.5408  149.4604  147.9923 H       1  UNL1        0.0829
     51 H         118.5410  155.9131  149.4296 H       1  UNL1        0.0873
     52 H         118.3569  154.1501  149.2071 H       1  UNL1        0.0873
     53 H         121.6890  148.2822  145.7971 H       1  UNL1        0.0633
     54 H         113.3074  156.2655  149.3169 H       1  UNL1        0.0659
     55 H         113.6877  154.7935  151.4388 H       1  UNL1        0.0694
     56 H         114.8285  157.7811  146.2045 H       1  UNL1        0.0660
     57 H         114.1769  158.0521  147.8277 H       1  UNL1        0.0660
     58 H         113.7405  156.5681  146.8925 H       1  UNL1        0.0660
@<TRIPOS>UNITY_ATOM_ATTR
5 1
charge 1
@<TRIPOS>BOND
     1     1    23   ar
     2     1    26   ar
     3     2     6    1
     4     2    15    1
     5     3    24    1
     6     3    27    1
     7     4    16   ar
     8     4    20   ar
     9     5    17    1
    10     5    21    1
    11     5    28    1
    12     5    29    1
    13     6     8    1
    14     6     9    1
    15     6    10    1
    16     7     8    1
    17     7    11    1
    18     7    14    1
    19     7    16    1
    20     8    30    1
    21     8    31    1
    22     9    12    1
    23     9    32    1
    24     9    33    1
    25    10    13    1
    26    10    34    1
    27    10    35    1
    28    11    15    1
    29    11    36    1
    30    11    37    1
    31    12    13    1
    32    12    38    1
    33    12    39    1
    34    13    40    1
    35    13    41    1
    36    14    17    1
    37    14    42    1
    38    14    43    1
    39    15    44    1
    40    15    45    1
    41    16    18   ar
    42    17    46    1
    43    17    47    1
    44    18    19   ar
    45    18    48    1
    46    19    22   ar
    47    19    49    1
    48    20    22   ar
    49    20    50    1
    50    21    23    1
    51    21    51    1
    52    21    52    1
    53    22    53    1
    54    23    24   ar
    55    24    25   ar
    56    25    26   ar
    57    25    54    1
    58    26    55    1
    59    27    56    1
    60    27    57    1
    61    27    58    1
@<TRIPOS>MOLECULE
66553195
 58 61 0 0 0
SMALL
GASTEIGER

@<TRIPOS>ATOM
      1 S         119.6280  159.5355  148.3853 S.2     1  UNL1       -0.0926
      2 O         124.2493  154.5432  145.6167 O.3     1  UNL1       -0.3733
      3 O         117.6092  156.6757  149.9936 O.3     1  UNL1       -0.4941
      4 N         121.0477  151.8066  144.9230 N.ar    1  UNL1       -0.2593
      5 N         118.4560  156.0747  147.1313 N.4     1  UNL1        0.2308
      6 C         124.0372  153.9640  146.9082 C.3     1  UNL1        0.0704
      7 C         121.5098  153.7836  146.3122 C.3     1  UNL1        0.0224
      8 C         122.5817  154.1953  147.3604 C.3     1  UNL1       -0.0124
      9 C         125.0158  154.6602  147.8697 C.3     1  UNL1       -0.0237
     10 C         124.5486  152.5202  146.9805 C.3     1  UNL1       -0.0237
     11 C         121.9374  154.4242  144.9605 C.3     1  UNL1       -0.0181
     12 C         126.3726  154.0194  147.5816 C.3     1  UNL1       -0.0504
     13 C         126.0701  152.6569  146.9636 C.3     1  UNL1       -0.0504
     14 C         120.0854  154.2849  146.7225 C.3     1  UNL1       -0.0013
     15 C         123.3727  154.0699  144.5981 C.3     1  UNL1        0.0492
     16 C         121.3482  152.2584  146.1654 C.ar    1  UNL1        0.0478
     17 C         119.8909  155.7970  146.8045 C.3     1  UNL1       -0.0325
     18 C         121.3956  151.3874  147.2557 C.ar    1  UNL1       -0.0398
     19 C         121.1971  150.0227  147.0507 C.ar    1  UNL1       -0.0586
     20 C         120.8682  150.4771  144.7476 C.ar    1  UNL1        0.0279
     21 C         118.1021  157.5272  147.2194 C.3     1  UNL1        0.0021
     22 C         120.9356  149.5541  145.7719 C.ar    1  UNL1       -0.0436
     23 C         118.6176  158.1583  148.4658 C.ar    1  UNL1        0.0756
     24 C         118.3760  157.7748  149.7696 C.ar    1  UNL1        0.1353
     25 C         119.0294  158.6231  150.7091 C.ar    1  UNL1       -0.0124
     26 C         119.7432  159.6255  150.0875 C.ar    1  UNL1       -0.0203
     27 C         117.1797  156.5285  151.3478 C.3     1  UNL1        0.0788
     28 H         118.2072  155.6553  148.0404 H       1  UNL1        0.2017
     29 H         117.8465  155.6330  146.4328 H       1  UNL1        0.2017
     30 H         122.4809  155.2760  147.5277 H       1  UNL1        0.0302
     31 H         122.4019  153.7334  148.3372 H       1  UNL1        0.0302
     32 H         124.7397  154.4691  148.9142 H       1  UNL1        0.0293
     33 H         125.0602  155.7440  147.7177 H       1  UNL1        0.0293
     34 H         124.2245  151.8810  146.1563 H       1  UNL1        0.0293
     35 H         124.2424  152.0490  147.9223 H       1  UNL1        0.0293
     36 H         121.8999  155.5165  145.0489 H       1  UNL1        0.0296
     37 H         121.2599  154.1544  144.1424 H       1  UNL1        0.0296
     38 H         126.9674  153.9281  148.4961 H       1  UNL1        0.0266
     39 H         126.9473  154.6308  146.8764 H       1  UNL1        0.0266
     40 H         126.4440  152.6252  145.9335 H       1  UNL1        0.0266
     41 H         126.5516  151.8418  147.5130 H       1  UNL1        0.0266
     42 H         119.8170  153.8486  147.6954 H       1  UNL1        0.0326
     43 H         119.3508  153.8883  146.0060 H       1  UNL1        0.0326
     44 H         123.5188  153.0007  144.4227 H       1  UNL1        0.0560
     45 H         123.6491  154.5828  143.6708 H       1  UNL1        0.0560
     46 H         120.4974  156.2425  147.5965 H       1  UNL1        0.0814
     47 H         120.0858  156.2934  145.8513 H       1  UNL1        0.0814
     48 H         121.5873  151.7348  148.2643 H       1  UNL1        0.0636
     49 H         121.2502  149.3281  147.8853 H       1  UNL1        0.0619
     50 H         120.6614  150.1658  143.7271 H       1  UNL1        0.0829
     51 H         117.0071  157.5692  147.2112 H       1  UNL1        0.0873
     52 H         118.4635  158.0049  146.3026 H       1  UNL1        0.0873
     53 H         120.7855  148.4973  145.5792 H       1  UNL1        0.0633
     54 H         118.9971  158.5252  151.7877 H       1  UNL1        0.0659
     55 H         120.3291  160.4077  150.5545 H       1  UNL1        0.0694
     56 H         116.6363  157.4158  151.6905 H       1  UNL1        0.0660
     57 H         118.0275  156.3074  152.0044 H       1  UNL1        0.0660
     58 H         116.4928  155.6778  151.3884 H       1  UNL1        0.0660
@<TRIPOS>UNITY_ATOM_ATTR
5 1
charge 1
@<TRIPOS>BOND
     1     1    23   ar
     2     1    26   ar
     3     2     6    1
     4     2    15    1
     5     3    24    1
     6     3    27    1
     7     4    16   ar
     8     4    20   ar
     9     5    17    1
    10     5    21    1
    11     5    28    1
    12     5    29    1
    13     6     8    1
    14     6     9    1
    15     6    10    1
    16     7     8    1
    17     7    11    1
    18     7    14    1
    19     7    16    1
    20     8    30    1
    21     8    31    1
    22     9    12    1
    23     9    32    1
    24     9    33    1
    25    10    13    1
    26    10    34    1
    27    10    35    1
    28    11    15    1
    29    11    36    1
    30    11    37    1
    31    12    13    1
    32    12    38    1
    33    12    39    1
    34    13    40    1
    35    13    41    1
    36    14    17    1
    37    14    42    1
    38    14    43    1
    39    15    44    1
    40    15    45    1
    41    16    18   ar
    42    17    46    1
    43    17    47    1
    44    18    19   ar
    45    18    48    1
    46    19    22   ar
    47    19    49    1
    48    20    22   ar
    49    20    50    1
    50    21    23    1
    51    21    51    1
    52    21    52    1
    53    22    53    1
    54    23    24   ar
    55    24    25   ar
    56    25    26   ar
    57    25    54    1
    58    26    55    1
    59    27    56    1
    60    27    57    1
    61    27    58    1
@<TRIPOS>MOLECULE
66553195
 58 61 0 0 0
SMALL
GASTEIGER

@<TRIPOS>ATOM
      1 S         118.9660  152.2652  152.2779 S.2     1  UNL1       -0.0926
      2 O         123.8374  154.8107  145.6946 O.3     1  UNL1       -0.3733
      3 O         118.2059  155.4901  150.3084 O.3     1  UNL1       -0.4941
      4 N         120.7547  151.4394  144.9843 N.ar    1  UNL1       -0.2593
      5 N         118.1680  153.1870  148.5359 N.4     1  UNL1        0.2308
      6 C         123.8730  154.0781  146.9205 C.3     1  UNL1        0.0704
      7 C         121.4161  153.3136  146.4027 C.3     1  UNL1        0.0224
      8 C         122.4456  153.8290  147.4514 C.3     1  UNL1       -0.0124
      9 C         124.6722  154.9331  147.9212 C.3     1  UNL1       -0.0237
     10 C         124.7865  152.8515  146.8123 C.3     1  UNL1       -0.0237
     11 C         121.5986  154.1719  145.1172 C.3     1  UNL1       -0.0181
     12 C         126.1374  154.7428  147.5285 C.3     1  UNL1       -0.0504
     13 C         126.1947  153.4380  146.7389 C.3     1  UNL1       -0.0504
     14 C         119.9587  153.5835  146.9096 C.3     1  UNL1       -0.0013
     15 C         123.0471  154.2212  144.6691 C.3     1  UNL1        0.0492
     16 C         121.4929  151.8210  146.0565 C.ar    1  UNL1        0.0478
     17 C         119.5524  152.7820  148.1423 C.3     1  UNL1       -0.0325
     18 C         122.1583  150.8735  146.8323 C.ar    1  UNL1       -0.0398
     19 C         122.1330  149.5315  146.4516 C.ar    1  UNL1       -0.0586
     20 C         120.7604  150.1362  144.6202 C.ar    1  UNL1        0.0279
     21 C         117.6916  152.6188  149.8353 C.3     1  UNL1        0.0021
     22 C         121.4310  149.1533  145.3176 C.ar    1  UNL1       -0.0436
     23 C         118.3690  153.2444  151.0084 C.ar    1  UNL1        0.0756
     24 C         118.6020  154.5857  151.2434 C.ar    1  UNL1        0.1353
     25 C         119.2808  154.8050  152.4767 C.ar    1  UNL1       -0.0124
     26 C         119.5369  153.6243  153.1407 C.ar    1  UNL1       -0.0203
     27 C         118.3340  156.8529  150.7163 C.3     1  UNL1        0.0788
     28 H         117.5076  152.9341  147.7914 H       1  UNL1        0.2017
     29 H         118.1182  154.2133  148.6364 H       1  UNL1        0.2017
     30 H         122.0731  154.8039  147.8011 H       1  UNL1        0.0302
     31 H         122.4747  153.1979  148.3465 H       1  UNL1        0.0302
     32 H         124.5235  154.5735  148.9472 H       1  UNL1        0.0293
     33 H         124.3974  155.9928  147.8854 H       1  UNL1        0.0293
     34 H         124.5970  152.2221  145.9400 H       1  UNL1        0.0293
     35 H         124.7116  152.2307  147.7127 H       1  UNL1        0.0293
     36 H         121.2822  155.2016  145.3358 H       1  UNL1        0.0296
     37 H         120.9667  153.8242  144.2918 H       1  UNL1        0.0296
     38 H         126.7782  154.7078  148.4156 H       1  UNL1        0.0266
     39 H         126.4845  155.5748  146.9056 H       1  UNL1        0.0266
     40 H         126.4666  153.6454  145.6973 H       1  UNL1        0.0266
     41 H         126.9408  152.7463  147.1424 H       1  UNL1        0.0266
     42 H         119.2402  153.3744  146.1041 H       1  UNL1        0.0326
     43 H         119.8490  154.6543  147.1315 H       1  UNL1        0.0326
     44 H         123.4334  153.2365  144.3904 H       1  UNL1        0.0560
     45 H         123.1339  154.8611  143.7848 H       1  UNL1        0.0560
     46 H         119.5174  151.7056  147.9535 H       1  UNL1        0.0814
     47 H         120.2140  152.9919  148.9866 H       1  UNL1        0.0814
     48 H         122.7073  151.1335  147.7287 H       1  UNL1        0.0636
     49 H         122.6704  148.7857  147.0329 H       1  UNL1        0.0619
     50 H         120.1933  149.8998  143.7236 H       1  UNL1        0.0829
     51 H         117.8298  151.5339  149.7793 H       1  UNL1        0.0873
     52 H         116.6166  152.8259  149.8779 H       1  UNL1        0.0873
     53 H         121.4096  148.1208  144.9858 H       1  UNL1        0.0633
     54 H         119.5795  155.7656  152.8793 H       1  UNL1        0.0659
     55 H         120.0339  153.4968  154.0945 H       1  UNL1        0.0694
     56 H         117.7580  157.0497  151.6269 H       1  UNL1        0.0660
     57 H         117.9243  157.4786  149.9176 H       1  UNL1        0.0660
     58 H         119.3867  157.1238  150.8481 H       1  UNL1        0.0660
@<TRIPOS>UNITY_ATOM_ATTR
5 1
charge 1
@<TRIPOS>BOND
     1     1    23   ar
     2     1    26   ar
     3     2     6    1
     4     2    15    1
     5     3    24    1
     6     3    27    1
     7     4    16   ar
     8     4    20   ar
     9     5    17    1
    10     5    21    1
    11     5    28    1
    12     5    29    1
    13     6     8    1
    14     6     9    1
    15     6    10    1
    16     7     8    1
    17     7    11    1
    18     7    14    1
    19     7    16    1
    20     8    30    1
    21     8    31    1
    22     9    12    1
    23     9    32    1
    24     9    33    1
    25    10    13    1
    26    10    34    1
    27    10    35    1
    28    11    15    1
    29    11    36    1
    30    11    37    1
    31    12    13    1
    32    12    38    1
    33    12    39    1
    34    13    40    1
    35    13    41    1
    36    14    17    1
    37    14    42    1
    38    14    43    1
    39    15    44    1
    40    15    45    1
    41    16    18   ar
    42    17    46    1
    43    17    47    1
    44    18    19   ar
    45    18    48    1
    46    19    22   ar
    47    19    49    1
    48    20    22   ar
    49    20    50    1
    50    21    23    1
    51    21    51    1
    52    21    52    1
    53    22    53    1
    54    23    24   ar
    55    24    25   ar
    56    25    26   ar
    57    25    54    1
    58    26    55    1
    59    27    56    1
    60    27    57    1
    61    27    58    1
@<TRIPOS>MOLECULE
66553195
 58 61 0 0 0
SMALL
GASTEIGER

@<TRIPOS>ATOM
      1 S         119.2273  151.9654  152.3405 S.2     1  UNL1       -0.0926
      2 O         123.7783  155.0488  145.8270 O.3     1  UNL1       -0.3733
      3 O         118.2990  155.4620  151.0122 O.3     1  UNL1       -0.4941
      4 N         121.6433  151.2632  147.1796 N.ar    1  UNL1       -0.2593
      5 N         118.2289  153.4274  148.8544 N.4     1  UNL1        0.2308
      6 C         123.8110  154.1722  146.9577 C.3     1  UNL1        0.0704
      7 C         121.3212  153.5861  146.4861 C.3     1  UNL1        0.0224
      8 C         122.3963  154.0025  147.5354 C.3     1  UNL1       -0.0124
      9 C         124.7435  154.8201  147.9945 C.3     1  UNL1       -0.0237
     10 C         124.5714  152.8735  146.6605 C.3     1  UNL1       -0.0237
     11 C         121.4729  154.5599  145.2852 C.3     1  UNL1       -0.0181
     12 C         126.1546  154.5342  147.4840 C.3     1  UNL1       -0.0504
     13 C         126.0373  153.2987  146.5953 C.3     1  UNL1       -0.0504
     14 C         119.8869  153.8006  147.0765 C.3     1  UNL1       -0.0013
     15 C         122.9067  154.6458  144.7797 C.3     1  UNL1        0.0492
     16 C         121.4510  152.1011  146.1262 C.ar    1  UNL1        0.0478
     17 C         119.5564  152.9762  148.3240 C.3     1  UNL1       -0.0325
     18 C         121.3211  151.6048  144.8299 C.ar    1  UNL1       -0.0398
     19 C         121.4481  150.2342  144.6053 C.ar    1  UNL1       -0.0586
     20 C         121.7845  149.9394  146.9315 C.ar    1  UNL1        0.0279
     21 C         117.7810  152.7087  150.0893 C.3     1  UNL1        0.0021
     22 C         121.6934  149.3832  145.6721 C.ar    1  UNL1       -0.0436
     23 C         118.5358  153.1349  151.3015 C.ar    1  UNL1        0.0756
     24 C         118.7690  154.4203  151.7487 C.ar    1  UNL1        0.1353
     25 C         119.5260  154.4397  152.9555 C.ar    1  UNL1       -0.0124
     26 C         119.8393  153.1685  153.3874 C.ar    1  UNL1       -0.0203
     27 C         118.4024  156.7310  151.6591 C.3     1  UNL1        0.0788
     28 H         117.5086  153.3249  148.1321 H       1  UNL1        0.2017
     29 H         118.2694  154.4287  149.0995 H       1  UNL1        0.2017
     30 H         122.0912  154.9770  147.9451 H       1  UNL1        0.0302
     31 H         122.4271  153.3163  148.3900 H       1  UNL1        0.0302
     32 H         124.6145  154.3564  148.9805 H       1  UNL1        0.0293
     33 H         124.5799  155.8982  148.0966 H       1  UNL1        0.0293
     34 H         124.2856  152.3820  145.7281 H       1  UNL1        0.0293
     35 H         124.4418  152.1547  147.4789 H       1  UNL1        0.0293
     36 H         121.1876  155.5673  145.6205 H       1  UNL1        0.0296
     37 H         120.7909  154.3141  144.4643 H       1  UNL1        0.0296
     38 H         126.8498  154.3736  148.3143 H       1  UNL1        0.0266
     39 H         126.5325  155.3806  146.8991 H       1  UNL1        0.0266
     40 H         126.3147  153.5540  145.5659 H       1  UNL1        0.0266
     41 H         126.7017  152.4934  146.9242 H       1  UNL1        0.0266
     42 H         119.1397  153.5759  146.3022 H       1  UNL1        0.0326
     43 H         119.7604  154.8651  147.3187 H       1  UNL1        0.0326
     44 H         123.2518  153.7102  144.3316 H       1  UNL1        0.0560
     45 H         122.9675  155.4085  143.9961 H       1  UNL1        0.0560
     46 H         119.4383  151.9138  148.0994 H       1  UNL1        0.0814
     47 H         120.2888  153.1240  149.1208 H       1  UNL1        0.0814
     48 H         121.1374  152.2454  143.9748 H       1  UNL1        0.0636
     49 H         121.3688  149.8351  143.5966 H       1  UNL1        0.0619
     50 H         121.9813  149.3186  147.8017 H       1  UNL1        0.0829
     51 H         117.8529  151.6357  149.8823 H       1  UNL1        0.0873
     52 H         116.7212  152.9589  150.2120 H       1  UNL1        0.0873
     53 H         121.8148  148.3157  145.5228 H       1  UNL1        0.0633
     54 H         119.8408  155.3233  153.4977 H       1  UNL1        0.0659
     55 H         120.4011  152.8896  154.2702 H       1  UNL1        0.0694
     56 H         117.9261  157.4738  151.0121 H       1  UNL1        0.0660
     57 H         119.4507  157.0202  151.7872 H       1  UNL1        0.0660
     58 H         117.8724  156.7314  152.6178 H       1  UNL1        0.0660
@<TRIPOS>UNITY_ATOM_ATTR
5 1
charge 1
@<TRIPOS>BOND
     1     1    23   ar
     2     1    26   ar
     3     2     6    1
     4     2    15    1
     5     3    24    1
     6     3    27    1
     7     4    16   ar
     8     4    20   ar
     9     5    17    1
    10     5    21    1
    11     5    28    1
    12     5    29    1
    13     6     8    1
    14     6     9    1
    15     6    10    1
    16     7     8    1
    17     7    11    1
    18     7    14    1
    19     7    16    1
    20     8    30    1
    21     8    31    1
    22     9    12    1
    23     9    32    1
    24     9    33    1
    25    10    13    1
    26    10    34    1
    27    10    35    1
    28    11    15    1
    29    11    36    1
    30    11    37    1
    31    12    13    1
    32    12    38    1
    33    12    39    1
    34    13    40    1
    35    13    41    1
    36    14    17    1
    37    14    42    1
    38    14    43    1
    39    15    44    1
    40    15    45    1
    41    16    18   ar
    42    17    46    1
    43    17    47    1
    44    18    19   ar
    45    18    48    1
    46    19    22   ar
    47    19    49    1
    48    20    22   ar
    49    20    50    1
    50    21    23    1
    51    21    51    1
    52    21    52    1
    53    22    53    1
    54    23    24   ar
    55    24    25   ar
    56    25    26   ar
    57    25    54    1
    58    26    55    1
    59    27    56    1
    60    27    57    1
    61    27    58    1
@<TRIPOS>MOLECULE
66553195
 58 61 0 0 0
SMALL
GASTEIGER

@<TRIPOS>ATOM
      1 S         118.3185  148.6914  148.1886 S.2     1  UNL1       -0.0926
      2 O         123.7773  155.0170  145.8763 O.3     1  UNL1       -0.3733
      3 O         120.5761  149.1140  151.2846 O.3     1  UNL1       -0.4941
      4 N         121.6899  151.1663  146.9883 N.ar    1  UNL1       -0.2593
      5 N         119.4880  151.6712  148.3164 N.4     1  UNL1        0.2308
      6 C         123.7778  154.1088  146.9807 C.3     1  UNL1        0.0704
      7 C         121.3005  153.5334  146.4185 C.3     1  UNL1        0.0224
      8 C         122.3461  153.9114  147.5099 C.3     1  UNL1       -0.0124
      9 C         124.6732  154.7313  148.0649 C.3     1  UNL1       -0.0237
     10 C         124.5585  152.8259  146.6680 C.3     1  UNL1       -0.0237
     11 C         121.4897  154.5544  145.2583 C.3     1  UNL1       -0.0181
     12 C         126.1012  154.4754  147.5860 C.3     1  UNL1       -0.0504
     13 C         126.0221  153.2643  146.6601 C.3     1  UNL1       -0.0504
     14 C         119.8414  153.7279  146.9634 C.3     1  UNL1       -0.0013
     15 C         122.9356  154.6497  144.7925 C.3     1  UNL1        0.0492
     16 C         121.4601  152.0647  145.9851 C.ar    1  UNL1        0.0478
     17 C         119.4848  153.1455  148.3364 C.3     1  UNL1       -0.0325
     18 C         121.3179  151.6371  144.6656 C.ar    1  UNL1       -0.0398
     19 C         121.4984  150.2893  144.3551 C.ar    1  UNL1       -0.0586
     20 C         121.9143  149.8684  146.6465 C.ar    1  UNL1        0.0279
     21 C         119.0666  150.9897  149.5677 C.3     1  UNL1        0.0021
     22 C         121.8194  149.3881  145.3578 C.ar    1  UNL1       -0.0436
     23 C         119.1630  149.5064  149.4407 C.ar    1  UNL1        0.0756
     24 C         119.8630  148.6255  150.2391 C.ar    1  UNL1        0.1353
     25 C         119.7230  147.2756  149.8023 C.ar    1  UNL1       -0.0124
     26 C         118.9094  147.1717  148.6946 C.ar    1  UNL1       -0.0203
     27 C         121.1127  148.1224  152.1566 C.3     1  UNL1        0.0788
     28 H         120.4523  151.3494  148.0925 H       1  UNL1        0.2017
     29 H         118.9286  151.3027  147.5385 H       1  UNL1        0.2017
     30 H         122.0257  154.8689  147.9471 H       1  UNL1        0.0302
     31 H         122.3536  153.1911  148.3369 H       1  UNL1        0.0302
     32 H         124.5205  154.2347  149.0312 H       1  UNL1        0.0293
     33 H         124.4959  155.8040  148.1965 H       1  UNL1        0.0293
     34 H         124.3049  152.3615  145.7126 H       1  UNL1        0.0293
     35 H         124.4112  152.0817  147.4602 H       1  UNL1        0.0293
     36 H         121.2068  155.5514  145.6255 H       1  UNL1        0.0296
     37 H         120.8247  154.3502  144.4128 H       1  UNL1        0.0296
     38 H         126.7757  154.2994  148.4302 H       1  UNL1        0.0266
     39 H         126.4846  155.3421  147.0354 H       1  UNL1        0.0266
     40 H         126.3291  153.5505  145.6473 H       1  UNL1        0.0266
     41 H         126.6830  152.4554  146.9872 H       1  UNL1        0.0266
     42 H         119.1227  153.3552  146.2201 H       1  UNL1        0.0326
     43 H         119.6478  154.8067  147.0442 H       1  UNL1        0.0326
     44 H         123.2904  153.7269  144.3258 H       1  UNL1        0.0560
     45 H         123.0201  155.4363  144.0352 H       1  UNL1        0.0560
     46 H         120.1723  153.4755  149.1206 H       1  UNL1        0.0814
     47 H         118.4703  153.4547  148.6109 H       1  UNL1        0.0814
     48 H         121.0887  152.3169  143.8519 H       1  UNL1        0.0636
     49 H         121.4116  149.9501  143.3246 H       1  UNL1        0.0619
     50 H         122.1719  149.2026  147.4675 H       1  UNL1        0.0829
     51 H         118.0341  151.2941  149.7718 H       1  UNL1        0.0873
     52 H         119.7098  151.3714  150.3671 H       1  UNL1        0.0873
     53 H         121.9962  148.3408  145.1355 H       1  UNL1        0.0633
     54 H         120.1807  146.4084  150.2628 H       1  UNL1        0.0659
     55 H         118.6286  146.2701  148.1646 H       1  UNL1        0.0694
     56 H         121.6009  148.6383  152.9889 H       1  UNL1        0.0660
     57 H         121.8697  147.5189  151.6451 H       1  UNL1        0.0660
     58 H         120.3207  147.4902  152.5728 H       1  UNL1        0.0660
@<TRIPOS>UNITY_ATOM_ATTR
5 1
charge 1
@<TRIPOS>BOND
     1     1    23   ar
     2     1    26   ar
     3     2     6    1
     4     2    15    1
     5     3    24    1
     6     3    27    1
     7     4    16   ar
     8     4    20   ar
     9     5    17    1
    10     5    21    1
    11     5    28    1
    12     5    29    1
    13     6     8    1
    14     6     9    1
    15     6    10    1
    16     7     8    1
    17     7    11    1
    18     7    14    1
    19     7    16    1
    20     8    30    1
    21     8    31    1
    22     9    12    1
    23     9    32    1
    24     9    33    1
    25    10    13    1
    26    10    34    1
    27    10    35    1
    28    11    15    1
    29    11    36    1
    30    11    37    1
    31    12    13    1
    32    12    38    1
    33    12    39    1
    34    13    40    1
    35    13    41    1
    36    14    17    1
    37    14    42    1
    38    14    43    1
    39    15    44    1
    40    15    45    1
    41    16    18   ar
    42    17    46    1
    43    17    47    1
    44    18    19   ar
    45    18    48    1
    46    19    22   ar
    47    19    49    1
    48    20    22   ar
    49    20    50    1
    50    21    23    1
    51    21    51    1
    52    21    52    1
    53    22    53    1
    54    23    24   ar
    55    24    25   ar
    56    25    26   ar
    57    25    54    1
    58    26    55    1
    59    27    56    1
    60    27    57    1
    61    27    58    1
@<TRIPOS>MOLECULE
66553195
 58 61 0 0 0
SMALL
GASTEIGER

@<TRIPOS>ATOM
      1 S         116.0825  157.8067  150.0041 S.2     1  UNL1       -0.0926
      2 O         124.2263  154.7721  145.7537 O.3     1  UNL1       -0.3733
      3 O         115.9866  156.7227  146.3094 O.3     1  UNL1       -0.4941
      4 N         121.1227  151.9571  144.9499 N.ar    1  UNL1       -0.2593
      5 N         118.4983  155.8510  147.7674 N.4     1  UNL1        0.2308
      6 C         124.1187  154.0491  146.9842 C.3     1  UNL1        0.0704
      7 C         121.5709  153.8055  146.5118 C.3     1  UNL1        0.0224
      8 C         122.6845  154.1598  147.5371 C.3     1  UNL1       -0.0124
      9 C         125.1214  154.6887  147.9601 C.3     1  UNL1       -0.0237
     10 C         124.6958  152.6330  146.8728 C.3     1  UNL1       -0.0237
     11 C         121.8867  154.6020  145.2133 C.3     1  UNL1       -0.0181
     12 C         126.4852  154.1507  147.5304 C.3     1  UNL1       -0.0504
     13 C         126.2064  152.8456  146.7896 C.3     1  UNL1       -0.0504
     14 C         120.1512  154.1940  147.0417 C.3     1  UNL1       -0.0013
     15 C         123.3134  154.3638  144.7388 C.3     1  UNL1        0.0492
     16 C         121.4684  152.2968  146.2157 C.ar    1  UNL1        0.0478
     17 C         119.9316  155.6619  147.3988 C.3     1  UNL1       -0.0325
     18 C         121.6135  151.3242  147.2075 C.ar    1  UNL1       -0.0398
     19 C         121.4643  149.9788  146.8744 C.ar    1  UNL1       -0.0586
     20 C         120.9922  150.6444  144.6489 C.ar    1  UNL1        0.0279
     21 C         118.1483  157.2260  148.2376 C.3     1  UNL1        0.0021
     22 C         121.1548  149.6279  145.5690 C.ar    1  UNL1       -0.0436
     23 C         116.6825  157.3444  148.4712 C.ar    1  UNL1        0.0756
     24 C         115.6636  157.1260  147.5659 C.ar    1  UNL1        0.1353
     25 C         114.3785  157.3445  148.1403 C.ar    1  UNL1       -0.0124
     26 C         114.4640  157.7232  149.4632 C.ar    1  UNL1       -0.0203
     27 C         114.8988  156.7559  145.3846 C.3     1  UNL1        0.0788
     28 H         118.2057  155.1817  148.4900 H       1  UNL1        0.2017
     29 H         117.8952  155.6592  146.9512 H       1  UNL1        0.2017
     30 H         122.5495  155.2122  147.8204 H       1  UNL1        0.0302
     31 H         122.5829  153.5932  148.4690 H       1  UNL1        0.0302
     32 H         124.9169  154.3753  148.9915 H       1  UNL1        0.0293
     33 H         125.1088  155.7833  147.9237 H       1  UNL1        0.0293
     34 H         124.3521  152.0685  146.0033 H       1  UNL1        0.0293
     35 H         124.4660  152.0509  147.7734 H       1  UNL1        0.0293
     36 H         121.7983  155.6758  145.4160 H       1  UNL1        0.0296
     37 H         121.1766  154.3792  144.4086 H       1  UNL1        0.0296
     38 H         127.1382  153.9961  148.3954 H       1  UNL1        0.0266
     39 H         126.9877  154.8599  146.8628 H       1  UNL1        0.0266
     40 H         126.5212  152.9380  145.7435 H       1  UNL1        0.0266
     41 H         126.7537  152.0032  147.2241 H       1  UNL1        0.0266
     42 H         119.9219  153.5912  147.9323 H       1  UNL1        0.0326
     43 H         119.4026  153.9069  146.2884 H       1  UNL1        0.0326
     44 H         123.4980  153.3280  144.4416 H       1  UNL1        0.0560
     45 H         123.5106  154.9848  143.8586 H       1  UNL1        0.0560
     46 H         120.5232  155.9607  148.2683 H       1  UNL1        0.0814
     47 H         120.1238  156.3359  146.5613 H       1  UNL1        0.0814
     48 H         121.8440  151.5778  148.2358 H       1  UNL1        0.0636
     49 H         121.5924  149.2078  147.6302 H       1  UNL1        0.0619
     50 H         120.7444  150.4266  143.6134 H       1  UNL1        0.0829
     51 H         118.4668  157.9262  147.4573 H       1  UNL1        0.0873
     52 H         118.7373  157.4096  149.1424 H       1  UNL1        0.0873
     53 H         121.0405  148.5897  145.2771 H       1  UNL1        0.0633
     54 H         113.4264  157.2338  147.6351 H       1  UNL1        0.0659
     55 H         113.6496  157.9534  150.1391 H       1  UNL1        0.0694
     56 H         115.2936  156.4984  144.3972 H       1  UNL1        0.0660
     57 H         114.4630  157.7589  145.3212 H       1  UNL1        0.0660
     58 H         114.1398  156.0119  145.6475 H       1  UNL1        0.0660
@<TRIPOS>UNITY_ATOM_ATTR
5 1
charge 1
@<TRIPOS>BOND
     1     1    23   ar
     2     1    26   ar
     3     2     6    1
     4     2    15    1
     5     3    24    1
     6     3    27    1
     7     4    16   ar
     8     4    20   ar
     9     5    17    1
    10     5    21    1
    11     5    28    1
    12     5    29    1
    13     6     8    1
    14     6     9    1
    15     6    10    1
    16     7     8    1
    17     7    11    1
    18     7    14    1
    19     7    16    1
    20     8    30    1
    21     8    31    1
    22     9    12    1
    23     9    32    1
    24     9    33    1
    25    10    13    1
    26    10    34    1
    27    10    35    1
    28    11    15    1
    29    11    36    1
    30    11    37    1
    31    12    13    1
    32    12    38    1
    33    12    39    1
    34    13    40    1
    35    13    41    1
    36    14    17    1
    37    14    42    1
    38    14    43    1
    39    15    44    1
    40    15    45    1
    41    16    18   ar
    42    17    46    1
    43    17    47    1
    44    18    19   ar
    45    18    48    1
    46    19    22   ar
    47    19    49    1
    48    20    22   ar
    49    20    50    1
    50    21    23    1
    51    21    51    1
    52    21    52    1
    53    22    53    1
    54    23    24   ar
    55    24    25   ar
    56    25    26   ar
    57    25    54    1
    58    26    55    1
    59    27    56    1
    60    27    57    1
    61    27    58    1
@<TRIPOS>MOLECULE
66553195
 58 61 0 0 0
SMALL
GASTEIGER

@<TRIPOS>ATOM
      1 S         115.8512  150.7697  148.5247 S.2     1  UNL1       -0.0926
      2 O         124.0490  154.8217  145.7498 O.3     1  UNL1       -0.3733
      3 O         116.3781  154.1639  146.7785 O.3     1  UNL1       -0.4941
      4 N         120.9696  151.1690  145.2235 N.ar    1  UNL1       -0.2593
      5 N         118.9659  151.3766  147.2665 N.4     1  UNL1        0.2308
      6 C         124.0615  154.1856  147.0282 C.3     1  UNL1        0.0704
      7 C         121.6847  153.2030  146.3955 C.3     1  UNL1        0.0224
      8 C         122.6290  153.8133  147.4811 C.3     1  UNL1       -0.0124
      9 C         124.6858  155.1952  148.0114 C.3     1  UNL1       -0.0237
     10 C         125.1181  153.0751  147.0766 C.3     1  UNL1       -0.0237
     11 C         121.9268  153.9684  145.0624 C.3     1  UNL1       -0.0181
     12 C         126.1876  155.1586  147.7254 C.3     1  UNL1       -0.0504
     13 C         126.4508  153.8207  147.0409 C.3     1  UNL1       -0.0504
     14 C         120.1874  153.5016  146.7876 C.3     1  UNL1       -0.0013
     15 C         123.3983  154.0869  144.7239 C.3     1  UNL1        0.0492
     16 C         121.8320  151.6946  146.1410 C.ar    1  UNL1        0.0478
     17 C         119.5675  152.6087  147.8620 C.3     1  UNL1       -0.0325
     18 C         122.6889  150.8575  146.8461 C.ar    1  UNL1       -0.0398
     19 C         122.7697  149.5051  146.5087 C.ar    1  UNL1       -0.0586
     20 C         121.1181  149.8695  144.8580 C.ar    1  UNL1        0.0279
     21 C         117.6597  151.5191  146.5550 C.3     1  UNL1        0.0021
     22 C         121.9923  149.0038  145.4770 C.ar    1  UNL1       -0.0436
     23 C         116.5389  151.9131  147.4512 C.ar    1  UNL1        0.0756
     24 C         115.9237  153.1443  147.5497 C.ar    1  UNL1        0.1353
     25 C         114.8710  153.1424  148.5100 C.ar    1  UNL1       -0.0124
     26 C         114.7222  151.9104  149.1105 C.ar    1  UNL1       -0.0203
     27 C         115.5708  155.3385  146.8074 C.3     1  UNL1        0.0788
     28 H         118.8558  150.6578  147.9894 H       1  UNL1        0.2017
     29 H         119.6291  150.9951  146.5710 H       1  UNL1        0.2017
     30 H         122.1688  154.7613  147.7972 H       1  UNL1        0.0302
     31 H         122.6537  153.1987  148.3887 H       1  UNL1        0.0302
     32 H         124.5077  154.8885  149.0498 H       1  UNL1        0.0293
     33 H         124.2939  156.2096  147.8803 H       1  UNL1        0.0293
     34 H         125.0662  152.3665  146.2470 H       1  UNL1        0.0293
     35 H         125.0546  152.5186  148.0191 H       1  UNL1        0.0293
     36 H         121.5273  154.9873  145.1666 H       1  UNL1        0.0296
     37 H         121.3922  153.5078  144.2232 H       1  UNL1        0.0296
     38 H         126.7645  155.2608  148.6503 H       1  UNL1        0.0266
     39 H         126.4784  155.9828  147.0644 H       1  UNL1        0.0266
     40 H         126.7654  153.9885  146.0041 H       1  UNL1        0.0266
     41 H         127.2440  153.2533  147.5377 H       1  UNL1        0.0266
     42 H         119.5631  153.4810  145.8857 H       1  UNL1        0.0326
     43 H         120.1215  154.5395  147.1418 H       1  UNL1        0.0326
     44 H         123.8727  153.1135  144.5690 H       1  UNL1        0.0560
     45 H         123.5148  154.6530  143.7939 H       1  UNL1        0.0560
     46 H         120.3126  152.2749  148.5908 H       1  UNL1        0.0814
     47 H         118.7786  153.1324  148.4089 H       1  UNL1        0.0814
     48 H         123.3175  151.2097  147.6532 H       1  UNL1        0.0636
     49 H         123.4662  148.8528  147.0326 H       1  UNL1        0.0619
     50 H         120.4875  149.5357  144.0370 H       1  UNL1        0.0829
     51 H         117.4614  150.5417  146.0994 H       1  UNL1        0.0873
     52 H         117.8015  152.2268  145.7333 H       1  UNL1        0.0873
     53 H         122.0733  147.9677  145.1639 H       1  UNL1        0.0633
     54 H         114.2417  153.9865  148.7654 H       1  UNL1        0.0659
     55 H         114.0014  151.6280  149.8678 H       1  UNL1        0.0694
     56 H         116.0024  156.0567  146.1036 H       1  UNL1        0.0660
     57 H         115.5806  155.7965  147.8019 H       1  UNL1        0.0660
     58 H         114.5472  155.1233  146.4824 H       1  UNL1        0.0660
@<TRIPOS>UNITY_ATOM_ATTR
5 1
charge 1
@<TRIPOS>BOND
     1     1    23   ar
     2     1    26   ar
     3     2     6    1
     4     2    15    1
     5     3    24    1
     6     3    27    1
     7     4    16   ar
     8     4    20   ar
     9     5    17    1
    10     5    21    1
    11     5    28    1
    12     5    29    1
    13     6     8    1
    14     6     9    1
    15     6    10    1
    16     7     8    1
    17     7    11    1
    18     7    14    1
    19     7    16    1
    20     8    30    1
    21     8    31    1
    22     9    12    1
    23     9    32    1
    24     9    33    1
    25    10    13    1
    26    10    34    1
    27    10    35    1
    28    11    15    1
    29    11    36    1
    30    11    37    1
    31    12    13    1
    32    12    38    1
    33    12    39    1
    34    13    40    1
    35    13    41    1
    36    14    17    1
    37    14    42    1
    38    14    43    1
    39    15    44    1
    40    15    45    1
    41    16    18   ar
    42    17    46    1
    43    17    47    1
    44    18    19   ar
    45    18    48    1
    46    19    22   ar
    47    19    49    1
    48    20    22   ar
    49    20    50    1
    50    21    23    1
    51    21    51    1
    52    21    52    1
    53    22    53    1
    54    23    24   ar
    55    24    25   ar
    56    25    26   ar
    57    25    54    1
    58    26    55    1
    59    27    56    1
    60    27    57    1
    61    27    58    1
@<TRIPOS>MOLECULE
66553195
 58 61 0 0 0
SMALL
GASTEIGER

@<TRIPOS>ATOM
      1 S         116.5573  151.2633  143.3577 S.2     1  UNL1       -0.0926
      2 O         124.0849  154.8737  145.8735 O.3     1  UNL1       -0.3733
      3 O         115.0527  152.2167  146.7736 O.3     1  UNL1       -0.4941
      4 N         121.3814  151.6181  144.7304 N.ar    1  UNL1       -0.2593
      5 N         117.6378  153.9190  145.8032 N.4     1  UNL1        0.2308
      6 C         123.8690  154.1768  147.1038 C.3     1  UNL1        0.0704
      7 C         121.4899  153.5491  146.2318 C.3     1  UNL1        0.0224
      8 C         122.3623  154.0864  147.4063 C.3     1  UNL1       -0.0124
      9 C         124.5944  154.9791  148.1975 C.3     1  UNL1       -0.0237
     10 C         124.6492  152.8577  147.1563 C.3     1  UNL1       -0.0237
     11 C         121.9140  154.3499  144.9659 C.3     1  UNL1       -0.0181
     12 C         126.0730  154.6345  148.0217 C.3     1  UNL1       -0.0504
     13 C         126.1076  153.2889  147.3015 C.3     1  UNL1       -0.0504
     14 C         119.9878  153.8501  146.5530 C.3     1  UNL1       -0.0013
     15 C         123.4189  154.3171  144.7480 C.3     1  UNL1        0.0492
     16 C         121.6008  152.0374  146.0028 C.ar    1  UNL1        0.0478
     17 C         119.0016  153.3945  145.4706 C.3     1  UNL1       -0.0325
     18 C         121.7841  151.1223  147.0391 C.ar    1  UNL1       -0.0398
     19 C         121.8250  149.7593  146.7490 C.ar    1  UNL1       -0.0586
     20 C         121.4443  150.2908  144.4711 C.ar    1  UNL1        0.0279
     21 C         116.6068  153.6720  144.7445 C.3     1  UNL1        0.0021
     22 C         121.6625  149.3322  145.4397 C.ar    1  UNL1       -0.0436
     23 C         116.1651  152.2518  144.6984 C.ar    1  UNL1        0.0756
     24 C         115.4237  151.5686  145.6393 C.ar    1  UNL1        0.1353
     25 C         115.1794  150.2184  145.2552 C.ar    1  UNL1       -0.0124
     26 C         115.7402  149.9224  144.0309 C.ar    1  UNL1       -0.0203
     27 C         114.0326  151.5525  147.5198 C.3     1  UNL1        0.0788
     28 H         117.6807  154.9289  145.9774 H       1  UNL1        0.2017
     29 H         117.2911  153.4828  146.6694 H       1  UNL1        0.2017
     30 H         122.0212  155.1124  147.6129 H       1  UNL1        0.0302
     31 H         122.1865  153.5352  148.3365 H       1  UNL1        0.0302
     32 H         124.2655  154.6650  149.1958 H       1  UNL1        0.0293
     33 H         124.4360  156.0591  148.1062 H       1  UNL1        0.0293
     34 H         124.5332  152.2259  146.2729 H       1  UNL1        0.0293
     35 H         124.3606  152.2729  148.0380 H       1  UNL1        0.0293
     36 H         121.6144  155.3984  145.1013 H       1  UNL1        0.0296
     37 H         121.4159  154.0001  144.0556 H       1  UNL1        0.0296
     38 H         126.5848  154.5913  148.9886 H       1  UNL1        0.0266
     39 H         126.5787  155.3959  147.4169 H       1  UNL1        0.0266
     40 H         126.5696  153.4080  146.3143 H       1  UNL1        0.0266
     41 H         126.6932  152.5449  147.8506 H       1  UNL1        0.0266
     42 H         119.8686  154.9306  146.7121 H       1  UNL1        0.0326
     43 H         119.7110  153.3717  147.5028 H       1  UNL1        0.0326
     44 H         123.7888  153.3103  144.5335 H       1  UNL1        0.0560
     45 H         123.6727  154.9378  143.8822 H       1  UNL1        0.0560
     46 H         119.2560  153.7968  144.4872 H       1  UNL1        0.0814
     47 H         118.9167  152.3060  145.4292 H       1  UNL1        0.0814
     48 H         121.9068  151.4320  148.0710 H       1  UNL1        0.0636
     49 H         121.9931  149.0347  147.5424 H       1  UNL1        0.0619
     50 H         121.3096  150.0112  143.4294 H       1  UNL1        0.0829
     51 H         117.0185  154.0339  143.7961 H       1  UNL1        0.0873
     52 H         115.7578  154.3163  145.0009 H       1  UNL1        0.0873
     53 H         121.7064  148.2793  145.1823 H       1  UNL1        0.0633
     54 H         114.6276  149.4828  145.8277 H       1  UNL1        0.0659
     55 H         115.7078  148.9796  143.4996 H       1  UNL1        0.0694
     56 H         114.4108  150.6225  147.9565 H       1  UNL1        0.0660
     57 H         113.1467  151.3660  146.9027 H       1  UNL1        0.0660
     58 H         113.7363  152.2130  148.3403 H       1  UNL1        0.0660
@<TRIPOS>UNITY_ATOM_ATTR
5 1
charge 1
@<TRIPOS>BOND
     1     1    23   ar
     2     1    26   ar
     3     2     6    1
     4     2    15    1
     5     3    24    1
     6     3    27    1
     7     4    16   ar
     8     4    20   ar
     9     5    17    1
    10     5    21    1
    11     5    28    1
    12     5    29    1
    13     6     8    1
    14     6     9    1
    15     6    10    1
    16     7     8    1
    17     7    11    1
    18     7    14    1
    19     7    16    1
    20     8    30    1
    21     8    31    1
    22     9    12    1
    23     9    32    1
    24     9    33    1
    25    10    13    1
    26    10    34    1
    27    10    35    1
    28    11    15    1
    29    11    36    1
    30    11    37    1
    31    12    13    1
    32    12    38    1
    33    12    39    1
    34    13    40    1
    35    13    41    1
    36    14    17    1
    37    14    42    1
    38    14    43    1
    39    15    44    1
    40    15    45    1
    41    16    18   ar
    42    17    46    1
    43    17    47    1
    44    18    19   ar
    45    18    48    1
    46    19    22   ar
    47    19    49    1
    48    20    22   ar
    49    20    50    1
    50    21    23    1
    51    21    51    1
    52    21    52    1
    53    22    53    1
    54    23    24   ar
    55    24    25   ar
    56    25    26   ar
    57    25    54    1
    58    26    55    1
    59    27    56    1
    60    27    57    1
    61    27    58    1
@<TRIPOS>MOLECULE
66553195
 58 61 0 0 0
SMALL
GASTEIGER

@<TRIPOS>ATOM
      1 S         116.2448  151.3082  143.5886 S.2     1  UNL1       -0.0926
      2 O         123.8710  154.9575  145.7452 O.3     1  UNL1       -0.3733
      3 O         115.7814  151.1906  147.4120 O.3     1  UNL1       -0.4941
      4 N         121.2413  151.5857  144.8064 N.ar    1  UNL1       -0.2593
      5 N         117.5140  153.5640  146.4272 N.4     1  UNL1        0.2308
      6 C         123.8344  154.2195  146.9698 C.3     1  UNL1        0.0704
      7 C         121.4092  153.4798  146.3509 C.3     1  UNL1        0.0224
      8 C         122.3795  154.0342  147.4368 C.3     1  UNL1       -0.0124
      9 C         124.6335  155.0359  147.9999 C.3     1  UNL1       -0.0237
     10 C         124.6860  152.9467  146.8947 C.3     1  UNL1       -0.0237
     11 C         121.6405  154.3366  145.0729 C.3     1  UNL1       -0.0181
     12 C         126.0994  154.7810  147.6511 C.3     1  UNL1       -0.0504
     13 C         126.1261  153.4568  146.8919 C.3     1  UNL1       -0.0504
     14 C         119.9404  153.6793  146.8531 C.3     1  UNL1       -0.0013
     15 C         123.1104  154.3934  144.6851 C.3     1  UNL1        0.0492
     16 C         121.5758  151.9830  146.0606 C.ar    1  UNL1        0.0478
     17 C         118.8620  153.2535  145.8505 C.3     1  UNL1       -0.0325
     18 C         121.9185  151.0522  147.0412 C.ar    1  UNL1       -0.0398
     19 C         121.9934  149.7010  146.7060 C.ar    1  UNL1       -0.0586
     20 C         121.3379  150.2704  144.5010 C.ar    1  UNL1        0.0279
     21 C         116.3731  153.3357  145.4829 C.3     1  UNL1        0.0021
     22 C         121.7067  149.2995  145.4100 C.ar    1  UNL1       -0.0436
     23 C         116.1516  151.8920  145.1939 C.ar    1  UNL1        0.0756
     24 C         115.8630  150.8841  146.0907 C.ar    1  UNL1        0.1353
     25 C         115.7207  149.6196  145.4495 C.ar    1  UNL1       -0.0124
     26 C         115.9018  149.7105  144.0857 C.ar    1  UNL1       -0.0203
     27 C         115.2293  150.1513  148.2205 C.3     1  UNL1        0.0788
     28 H         117.4774  154.5353  146.7536 H       1  UNL1        0.2017
     29 H         117.3419  152.9634  147.2469 H       1  UNL1        0.2017
     30 H         122.0096  155.0330  147.7145 H       1  UNL1        0.0302
     31 H         122.3411  153.4491  148.3621 H       1  UNL1        0.0302
     32 H         124.4364  154.6800  149.0187 H       1  UNL1        0.0293
     33 H         124.4073  156.1068  147.9591 H       1  UNL1        0.0293
     34 H         124.5062  152.3316  146.0101 H       1  UNL1        0.0293
     35 H         124.5299  152.3243  147.7841 H       1  UNL1        0.0293
     36 H         121.3031  155.3623  145.2762 H       1  UNL1        0.0296
     37 H         121.0596  153.9825  144.2146 H       1  UNL1        0.0296
     38 H         126.7182  154.7448  148.5535 H       1  UNL1        0.0266
     39 H         126.4916  155.5841  147.0167 H       1  UNL1        0.0266
     40 H         126.4685  153.6251  145.8640 H       1  UNL1        0.0266
     41 H         126.8083  152.7348  147.3514 H       1  UNL1        0.0266
     42 H         119.7882  154.7384  147.1022 H       1  UNL1        0.0326
     43 H         119.7937  153.1234  147.7896 H       1  UNL1        0.0326
     44 H         123.5060  153.4146  144.3990 H       1  UNL1        0.0560
     45 H         123.2303  155.0488  143.8160 H       1  UNL1        0.0560
     46 H         118.9355  153.8096  144.9124 H       1  UNL1        0.0814
     47 H         118.8771  152.1785  145.6606 H       1  UNL1        0.0814
     48 H         122.1391  151.3414  148.0626 H       1  UNL1        0.0636
     49 H         122.2837  148.9661  147.4532 H       1  UNL1        0.0619
     50 H         121.1014  150.0111  143.4722 H       1  UNL1        0.0829
     51 H         116.5719  153.9357  144.5885 H       1  UNL1        0.0873
     52 H         115.4891  153.7549  145.9765 H       1  UNL1        0.0873
     53 H         121.7714  148.2572  145.1169 H       1  UNL1        0.0633
     54 H         115.5015  148.6778  145.9378 H       1  UNL1        0.0659
     55 H         115.8495  148.9115  143.3567 H       1  UNL1        0.0694
     56 H         115.1226  150.5412  149.2372 H       1  UNL1        0.0660
     57 H         115.9022  149.2884  148.2603 H       1  UNL1        0.0660
     58 H         114.2344  149.8593  147.8667 H       1  UNL1        0.0660
@<TRIPOS>UNITY_ATOM_ATTR
5 1
charge 1
@<TRIPOS>BOND
     1     1    23   ar
     2     1    26   ar
     3     2     6    1
     4     2    15    1
     5     3    24    1
     6     3    27    1
     7     4    16   ar
     8     4    20   ar
     9     5    17    1
    10     5    21    1
    11     5    28    1
    12     5    29    1
    13     6     8    1
    14     6     9    1
    15     6    10    1
    16     7     8    1
    17     7    11    1
    18     7    14    1
    19     7    16    1
    20     8    30    1
    21     8    31    1
    22     9    12    1
    23     9    32    1
    24     9    33    1
    25    10    13    1
    26    10    34    1
    27    10    35    1
    28    11    15    1
    29    11    36    1
    30    11    37    1
    31    12    13    1
    32    12    38    1
    33    12    39    1
    34    13    40    1
    35    13    41    1
    36    14    17    1
    37    14    42    1
    38    14    43    1
    39    15    44    1
    40    15    45    1
    41    16    18   ar
    42    17    46    1
    43    17    47    1
    44    18    19   ar
    45    18    48    1
    46    19    22   ar
    47    19    49    1
    48    20    22   ar
    49    20    50    1
    50    21    23    1
    51    21    51    1
    52    21    52    1
    53    22    53    1
    54    23    24   ar
    55    24    25   ar
    56    25    26   ar
    57    25    54    1
    58    26    55    1
    59    27    56    1
    60    27    57    1
    61    27    58    1
@<TRIPOS>MOLECULE
66553195
 58 61 0 0 0
SMALL
GASTEIGER

@<TRIPOS>ATOM
      1 S         118.3103  148.8044  143.2938 S.2     1  UNL1       -0.0926
      2 O         123.8178  155.1762  146.2053 O.3     1  UNL1       -0.3733
      3 O         116.9067  149.6604  146.7811 O.3     1  UNL1       -0.4941
      4 N         121.1062  151.1250  146.4314 N.ar    1  UNL1       -0.2593
      5 N         118.5131  151.8741  145.6800 N.4     1  UNL1        0.2308
      6 C         123.7304  154.0897  147.1304 C.3     1  UNL1        0.0704
      7 C         121.3784  153.5433  146.1405 C.3     1  UNL1        0.0224
      8 C         122.2583  153.7672  147.4077 C.3     1  UNL1       -0.0124
      9 C         124.4359  154.5459  148.4183 C.3     1  UNL1       -0.0237
     10 C         124.6092  152.8991  146.7277 C.3     1  UNL1       -0.0237
     11 C         121.6972  154.6714  145.1227 C.3     1  UNL1       -0.0181
     12 C         125.9249  154.4275  148.1039 C.3     1  UNL1       -0.0504
     13 C         126.0379  153.3541  147.0252 C.3     1  UNL1       -0.0504
     14 C         119.8802  153.7045  146.6152 C.3     1  UNL1       -0.0013
     15 C         123.1878  154.9559  144.9546 C.3     1  UNL1        0.0492
     16 C         121.5834  152.1123  145.6195 C.ar    1  UNL1        0.0478
     17 C         118.8033  153.3275  145.5974 C.3     1  UNL1       -0.0325
     18 C         122.1401  151.7944  144.3839 C.ar    1  UNL1       -0.0398
     19 C         122.3118  150.4548  144.0291 C.ar    1  UNL1       -0.0586
     20 C         121.3461  149.8307  146.0954 C.ar    1  UNL1        0.0279
     21 C         117.8662  151.2683  144.4870 C.3     1  UNL1        0.0021
     22 C         121.9305  149.4522  144.9073 C.ar    1  UNL1       -0.0436
     23 C         117.7927  149.7841  144.5996 C.ar    1  UNL1        0.0756
     24 C         117.3391  149.0253  145.6597 C.ar    1  UNL1        0.1353
     25 C         117.4245  147.6272  145.3940 C.ar    1  UNL1       -0.0124
     26 C         117.9345  147.3700  144.1393 C.ar    1  UNL1       -0.0203
     27 C         116.3357  148.7967  147.7638 C.3     1  UNL1        0.0788
     28 H         117.9376  151.6480  146.5040 H       1  UNL1        0.2017
     29 H         119.3916  151.3564  145.8667 H       1  UNL1        0.2017
     30 H         121.8421  154.6328  147.9450 H       1  UNL1        0.0302
     31 H         122.1790  152.9192  148.1006 H       1  UNL1        0.0302
     32 H         124.1875  153.8837  149.2569 H       1  UNL1        0.0293
     33 H         124.1810  155.5729  148.7010 H       1  UNL1        0.0293
     34 H         124.5294  152.6072  145.6795 H       1  UNL1        0.0293
     35 H         124.3739  152.0218  147.3430 H       1  UNL1        0.0293
     36 H         121.2461  155.6033  145.4909 H       1  UNL1        0.0296
     37 H         121.2411  154.4791  144.1450 H       1  UNL1        0.0296
     38 H         126.5024  154.1719  148.9979 H       1  UNL1        0.0266
     39 H         126.3133  155.3795  147.7236 H       1  UNL1        0.0266
     40 H         126.5004  153.7773  146.1260 H       1  UNL1        0.0266
     41 H         126.6608  152.5144  147.3498 H       1  UNL1        0.0266
     42 H         119.7192  154.7557  146.8920 H       1  UNL1        0.0326
     43 H         119.7156  153.1366  147.5421 H       1  UNL1        0.0326
     44 H         123.7136  154.1724  144.4057 H       1  UNL1        0.0560
     45 H         123.3098  155.8708  144.3643 H       1  UNL1        0.0560
     46 H         117.8607  153.8374  145.8203 H       1  UNL1        0.0814
     47 H         119.1046  153.5682  144.5739 H       1  UNL1        0.0814
     48 H         122.4760  152.5465  143.6798 H       1  UNL1        0.0636
     49 H         122.7746  150.1967  143.0784 H       1  UNL1        0.0619
     50 H         121.0293  149.0885  146.8246 H       1  UNL1        0.0829
     51 H         118.4514  151.5805  143.6152 H       1  UNL1        0.0873
     52 H         116.8625  151.7007  144.4135 H       1  UNL1        0.0873
     53 H         122.0898  148.4054  144.6700 H       1  UNL1        0.0633
     54 H         117.1328  146.8308  146.0677 H       1  UNL1        0.0659
     55 H         118.1013  146.4046  143.6781 H       1  UNL1        0.0694
     56 H         115.9809  149.4202  148.5897 H       1  UNL1        0.0660
     57 H         117.0871  148.1071  148.1628 H       1  UNL1        0.0660
     58 H         115.4754  148.2521  147.3598 H       1  UNL1        0.0660
@<TRIPOS>UNITY_ATOM_ATTR
5 1
charge 1
@<TRIPOS>BOND
     1     1    23   ar
     2     1    26   ar
     3     2     6    1
     4     2    15    1
     5     3    24    1
     6     3    27    1
     7     4    16   ar
     8     4    20   ar
     9     5    17    1
    10     5    21    1
    11     5    28    1
    12     5    29    1
    13     6     8    1
    14     6     9    1
    15     6    10    1
    16     7     8    1
    17     7    11    1
    18     7    14    1
    19     7    16    1
    20     8    30    1
    21     8    31    1
    22     9    12    1
    23     9    32    1
    24     9    33    1
    25    10    13    1
    26    10    34    1
    27    10    35    1
    28    11    15    1
    29    11    36    1
    30    11    37    1
    31    12    13    1
    32    12    38    1
    33    12    39    1
    34    13    40    1
    35    13    41    1
    36    14    17    1
    37    14    42    1
    38    14    43    1
    39    15    44    1
    40    15    45    1
    41    16    18   ar
    42    17    46    1
    43    17    47    1
    44    18    19   ar
    45    18    48    1
    46    19    22   ar
    47    19    49    1
    48    20    22   ar
    49    20    50    1
    50    21    23    1
    51    21    51    1
    52    21    52    1
    53    22    53    1
    54    23    24   ar
    55    24    25   ar
    56    25    26   ar
    57    25    54    1
    58    26    55    1
    59    27    56    1
    60    27    57    1
    61    27    58    1
@<TRIPOS>MOLECULE
66553195
 58 61 0 0 0
SMALL
GASTEIGER

@<TRIPOS>ATOM
      1 S         119.0807  159.4391  146.8847 S.2     1  UNL1       -0.0926
      2 O         124.1636  154.6997  145.5387 O.3     1  UNL1       -0.3733
      3 O         116.1131  157.0297  146.4092 O.3     1  UNL1       -0.4941
      4 N         121.0067  151.8731  145.0057 N.ar    1  UNL1       -0.2593
      5 N         118.5999  155.8280  147.9684 N.4     1  UNL1        0.2308
      6 C         124.1389  154.0087  146.7914 C.3     1  UNL1        0.0704
      7 C         121.5636  153.7515  146.4932 C.3     1  UNL1        0.0224
      8 C         122.7436  154.1268  147.4346 C.3     1  UNL1       -0.0124
      9 C         125.1981  154.6771  147.6853 C.3     1  UNL1       -0.0237
     10 C         124.7156  152.5927  146.6787 C.3     1  UNL1       -0.0237
     11 C         121.7926  154.5211  145.1613 C.3     1  UNL1       -0.0181
     12 C         126.5349  154.1335  147.1846 C.3     1  UNL1       -0.0504
     13 C         126.2172  152.8085  146.4967 C.3     1  UNL1       -0.0504
     14 C         120.1870  154.1507  147.1229 C.3     1  UNL1       -0.0013
     15 C         123.1842  154.2680  144.5979 C.3     1  UNL1        0.0492
     16 C         121.4440  152.2372  146.2360 C.ar    1  UNL1        0.0478
     17 C         119.9469  155.6433  147.3393 C.3     1  UNL1       -0.0325
     18 C         121.6659  151.2835  147.2315 C.ar    1  UNL1       -0.0398
     19 C         121.4990  149.9316  146.9342 C.ar    1  UNL1       -0.0586
     20 C         120.8601  150.5548  144.7385 C.ar    1  UNL1        0.0279
     21 C         118.2860  157.2344  148.3784 C.3     1  UNL1        0.0021
     22 C         121.0954  149.5559  145.6618 C.ar    1  UNL1       -0.0436
     23 C         118.0371  158.1240  147.2117 C.ar    1  UNL1        0.0756
     24 C         117.0122  158.0410  146.2923 C.ar    1  UNL1        0.1353
     25 C         117.0894  159.0674  145.3073 C.ar    1  UNL1       -0.0124
     26 C         118.1694  159.8992  145.5148 C.ar    1  UNL1       -0.0203
     27 C         114.9441  157.1897  145.6051 C.3     1  UNL1        0.0788
     28 H         118.5004  155.2214  148.7898 H       1  UNL1        0.2017
     29 H         117.8632  155.5404  147.3056 H       1  UNL1        0.2017
     30 H         122.6240  155.1832  147.7086 H       1  UNL1        0.0302
     31 H         122.7062  153.5776  148.3817 H       1  UNL1        0.0302
     32 H         125.0608  154.3897  148.7353 H       1  UNL1        0.0293
     33 H         125.1771  155.7704  147.6219 H       1  UNL1        0.0293
     34 H         124.3210  152.0062  145.8461 H       1  UNL1        0.0293
     35 H         124.5455  152.0318  147.6057 H       1  UNL1        0.0293
     36 H         121.7231  155.5993  145.3491 H       1  UNL1        0.0296
     37 H         121.0291  154.2854  144.4113 H       1  UNL1        0.0296
     38 H         127.2419  154.0041  148.0104 H       1  UNL1        0.0266
     39 H         126.9906  154.8272  146.4687 H       1  UNL1        0.0266
     40 H         126.4665  152.8744  145.4311 H       1  UNL1        0.0266
     41 H         126.7946  151.9798  146.9185 H       1  UNL1        0.0266
     42 H         120.0743  153.6346  148.0872 H       1  UNL1        0.0326
     43 H         119.3760  153.7699  146.4846 H       1  UNL1        0.0326
     44 H         123.3484  153.2246  144.3153 H       1  UNL1        0.0560
     45 H         123.3222  154.8665  143.6912 H       1  UNL1        0.0560
     46 H         120.6766  156.0795  148.0257 H       1  UNL1        0.0814
     47 H         119.9316  156.1961  146.3975 H       1  UNL1        0.0814
     48 H         121.9714  151.5561  148.2350 H       1  UNL1        0.0636
     49 H         121.6871  149.1749  147.6918 H       1  UNL1        0.0619
     50 H         120.5371  150.3177  143.7283 H       1  UNL1        0.0829
     51 H         119.1051  157.5741  149.0212 H       1  UNL1        0.0873
     52 H         117.3834  157.1706  148.9966 H       1  UNL1        0.0873
     53 H         120.9652  148.5121  145.3976 H       1  UNL1        0.0633
     54 H         116.4060  159.2091  144.4788 H       1  UNL1        0.0659
     55 H         118.4663  160.7569  144.9238 H       1  UNL1        0.0694
     56 H         115.1874  157.1058  144.5409 H       1  UNL1        0.0660
     57 H         114.4411  158.1389  145.8206 H       1  UNL1        0.0660
     58 H         114.2531  156.3796  145.8569 H       1  UNL1        0.0660
@<TRIPOS>UNITY_ATOM_ATTR
5 1
charge 1
@<TRIPOS>BOND
     1     1    23   ar
     2     1    26   ar
     3     2     6    1
     4     2    15    1
     5     3    24    1
     6     3    27    1
     7     4    16   ar
     8     4    20   ar
     9     5    17    1
    10     5    21    1
    11     5    28    1
    12     5    29    1
    13     6     8    1
    14     6     9    1
    15     6    10    1
    16     7     8    1
    17     7    11    1
    18     7    14    1
    19     7    16    1
    20     8    30    1
    21     8    31    1
    22     9    12    1
    23     9    32    1
    24     9    33    1
    25    10    13    1
    26    10    34    1
    27    10    35    1
    28    11    15    1
    29    11    36    1
    30    11    37    1
    31    12    13    1
    32    12    38    1
    33    12    39    1
    34    13    40    1
    35    13    41    1
    36    14    17    1
    37    14    42    1
    38    14    43    1
    39    15    44    1
    40    15    45    1
    41    16    18   ar
    42    17    46    1
    43    17    47    1
    44    18    19   ar
    45    18    48    1
    46    19    22   ar
    47    19    49    1
    48    20    22   ar
    49    20    50    1
    50    21    23    1
    51    21    51    1
    52    21    52    1
    53    22    53    1
    54    23    24   ar
    55    24    25   ar
    56    25    26   ar
    57    25    54    1
    58    26    55    1
    59    27    56    1
    60    27    57    1
    61    27    58    1
@<TRIPOS>MOLECULE
66553195
 58 61 0 0 0
SMALL
GASTEIGER

@<TRIPOS>ATOM
      1 S         116.6260  156.0355  144.4120 S.2     1  UNL1       -0.0926
      2 O         124.0208  154.7351  145.6706 O.3     1  UNL1       -0.3733
      3 O         115.1429  152.5749  143.5930 O.3     1  UNL1       -0.4941
      4 N         120.9997  151.6083  145.0329 N.ar    1  UNL1       -0.2593
      5 N         117.6145  154.1155  146.7080 N.4     1  UNL1        0.2308
      6 C         123.9669  154.0702  146.9356 C.3     1  UNL1        0.0704
      7 C         121.4532  153.5481  146.4551 C.3     1  UNL1        0.0224
      8 C         122.5235  154.0557  147.4682 C.3     1  UNL1       -0.0124
      9 C         124.8839  154.8558  147.8890 C.3     1  UNL1       -0.0237
     10 C         124.6868  152.7171  146.9000 C.3     1  UNL1       -0.0237
     11 C         121.7091  154.3113  145.1239 C.3     1  UNL1       -0.0181
     12 C         126.3027  154.4349  147.5087 C.3     1  UNL1       -0.0504
     13 C         126.1681  153.0809  146.8171 C.3     1  UNL1       -0.0504
     14 C         120.0432  153.9323  147.0080 C.3     1  UNL1       -0.0013
     15 C         123.1587  154.1977  144.6754 C.3     1  UNL1        0.0492
     16 C         121.4517  152.0305  146.2412 C.ar    1  UNL1        0.0478
     17 C         118.8590  153.5047  146.1321 C.3     1  UNL1       -0.0325
     18 C         121.7696  151.1183  147.2468 C.ar    1  UNL1       -0.0398
     19 C         121.7052  149.7519  146.9766 C.ar    1  UNL1       -0.0586
     20 C         120.9671  150.2774  144.7871 C.ar    1  UNL1        0.0279
     21 C         116.3452  153.7524  146.0005 C.3     1  UNL1        0.0021
     22 C         121.3080  149.3195  145.7202 C.ar    1  UNL1       -0.0436
     23 C         116.1714  154.4008  144.6682 C.ar    1  UNL1        0.0756
     24 C         115.5994  153.8516  143.5386 C.ar    1  UNL1        0.1353
     25 C         115.5872  154.7621  142.4423 C.ar    1  UNL1       -0.0124
     26 C         116.1238  155.9856  142.7810 C.ar    1  UNL1       -0.0203
     27 C         114.3830  152.1652  142.4585 C.3     1  UNL1        0.0788
     28 H         117.6925  155.1404  146.6870 H       1  UNL1        0.2017
     29 H         117.5216  153.8418  147.6923 H       1  UNL1        0.2017
     30 H         122.2669  155.0995  147.7057 H       1  UNL1        0.0302
     31 H         122.4691  153.5253  148.4253 H       1  UNL1        0.0302
     32 H         124.6921  154.5778  148.9329 H       1  UNL1        0.0293
     33 H         124.7638  155.9404  147.7942 H       1  UNL1        0.0293
     34 H         124.4113  152.0789  146.0574 H       1  UNL1        0.0293
     35 H         124.5084  152.1597  147.8274 H       1  UNL1        0.0293
     36 H         121.4872  155.3756  145.2839 H       1  UNL1        0.0296
     37 H         121.0548  153.9773  144.3117 H       1  UNL1        0.0296
     38 H         126.9455  154.3771  148.3931 H       1  UNL1        0.0266
     39 H         126.7524  155.1628  146.8238 H       1  UNL1        0.0266
     40 H         126.4812  153.1663  145.7699 H       1  UNL1        0.0266
     41 H         126.7959  152.3169  147.2865 H       1  UNL1        0.0266
     42 H         120.0030  155.0212  147.1504 H       1  UNL1        0.0326
     43 H         119.9121  153.4931  148.0071 H       1  UNL1        0.0326
     44 H         123.4409  153.1699  144.4294 H       1  UNL1        0.0560
     45 H         123.3041  154.7917  143.7670 H       1  UNL1        0.0560
     46 H         118.9488  153.8645  145.1049 H       1  UNL1        0.0814
     47 H         118.7066  152.4221  146.1470 H       1  UNL1        0.0814
     48 H         122.0801  151.4317  148.2372 H       1  UNL1        0.0636
     49 H         121.9768  149.0283  147.7417 H       1  UNL1        0.0619
     50 H         120.6493  149.9944  143.7869 H       1  UNL1        0.0829
     51 H         115.5337  154.0678  146.6661 H       1  UNL1        0.0873
     52 H         116.3220  152.6593  145.9384 H       1  UNL1        0.0873
     53 H         121.2678  148.2634  145.4757 H       1  UNL1        0.0633
     54 H         115.2049  154.5565  141.4497 H       1  UNL1        0.0659
     55 H         116.2320  156.8562  142.1460 H       1  UNL1        0.0694
     56 H         114.0085  151.1558  142.6544 H       1  UNL1        0.0660
     57 H         115.0092  152.1231  141.5614 H       1  UNL1        0.0660
     58 H         113.5174  152.8188  142.3042 H       1  UNL1        0.0660
@<TRIPOS>UNITY_ATOM_ATTR
5 1
charge 1
@<TRIPOS>BOND
     1     1    23   ar
     2     1    26   ar
     3     2     6    1
     4     2    15    1
     5     3    24    1
     6     3    27    1
     7     4    16   ar
     8     4    20   ar
     9     5    17    1
    10     5    21    1
    11     5    28    1
    12     5    29    1
    13     6     8    1
    14     6     9    1
    15     6    10    1
    16     7     8    1
    17     7    11    1
    18     7    14    1
    19     7    16    1
    20     8    30    1
    21     8    31    1
    22     9    12    1
    23     9    32    1
    24     9    33    1
    25    10    13    1
    26    10    34    1
    27    10    35    1
    28    11    15    1
    29    11    36    1
    30    11    37    1
    31    12    13    1
    32    12    38    1
    33    12    39    1
    34    13    40    1
    35    13    41    1
    36    14    17    1
    37    14    42    1
    38    14    43    1
    39    15    44    1
    40    15    45    1
    41    16    18   ar
    42    17    46    1
    43    17    47    1
    44    18    19   ar
    45    18    48    1
    46    19    22   ar
    47    19    49    1
    48    20    22   ar
    49    20    50    1
    50    21    23    1
    51    21    51    1
    52    21    52    1
    53    22    53    1
    54    23    24   ar
    55    24    25   ar
    56    25    26   ar
    57    25    54    1
    58    26    55    1
    59    27    56    1
    60    27    57    1
    61    27    58    1
@<TRIPOS>MOLECULE
66553195
 58 61 0 0 0
SMALL
GASTEIGER

@<TRIPOS>ATOM
      1 S         118.1541  150.3226  151.2724 S.2     1  UNL1       -0.0926
      2 O         123.9592  155.0744  145.7770 O.3     1  UNL1       -0.3733
      3 O         117.3311  150.9426  147.5539 O.3     1  UNL1       -0.4941
      4 N         121.8726  151.3366  147.2072 N.ar    1  UNL1       -0.2593
      5 N         118.2901  153.3587  148.6378 N.4     1  UNL1        0.2308
      6 C         123.9678  154.2494  146.9466 C.3     1  UNL1        0.0704
      7 C         121.4947  153.6320  146.4410 C.3     1  UNL1        0.0224
      8 C         122.5398  154.0980  147.4971 C.3     1  UNL1       -0.0124
      9 C         124.8717  154.9477  147.9760 C.3     1  UNL1       -0.0237
     10 C         124.7417  152.9437  146.7251 C.3     1  UNL1       -0.0237
     11 C         121.6676  154.5589  145.2069 C.3     1  UNL1       -0.0181
     12 C         126.2967  154.6455  147.5154 C.3     1  UNL1       -0.0504
     13 C         126.2059  153.3754  146.6736 C.3     1  UNL1       -0.0504
     14 C         120.0423  153.8395  146.9842 C.3     1  UNL1       -0.0013
     15 C         123.1117  154.6233  144.7290 C.3     1  UNL1        0.0492
     16 C         121.6411  152.1347  146.1329 C.ar    1  UNL1        0.0478
     17 C         119.7515  153.2007  148.3455 C.3     1  UNL1       -0.0325
     18 C         121.4706  151.5896  144.8606 C.ar    1  UNL1       -0.0398
     19 C         121.5910  150.2114  144.6829 C.ar    1  UNL1       -0.0586
     20 C         122.0024  150.0040  147.0062 C.ar    1  UNL1        0.0279
     21 C         117.8318  152.7092  149.9059 C.3     1  UNL1        0.0021
     22 C         121.8690  149.4006  145.7727 C.ar    1  UNL1       -0.0436
     23 C         117.8329  151.2168  149.8466 C.ar    1  UNL1        0.0756
     24 C         117.5943  150.3858  148.7675 C.ar    1  UNL1        0.1353
     25 C         117.6788  149.0076  149.1220 C.ar    1  UNL1       -0.0124
     26 C         117.9774  148.8342  150.4560 C.ar    1  UNL1       -0.0203
     27 C         117.2304  150.0024  146.4842 C.3     1  UNL1        0.0788
     28 H         117.7571  152.9008  147.8818 H       1  UNL1        0.2017
     29 H         118.0241  154.3486  148.6429 H       1  UNL1        0.2017
     30 H         122.2198  155.0878  147.8554 H       1  UNL1        0.0302
     31 H         122.5495  153.4489  148.3811 H       1  UNL1        0.0302
     32 H         124.7192  154.5285  148.9784 H       1  UNL1        0.0293
     33 H         124.7019  156.0286  148.0251 H       1  UNL1        0.0293
     34 H         124.4794  152.4093  145.8094 H       1  UNL1        0.0293
     35 H         124.5982  152.2616  147.5721 H       1  UNL1        0.0293
     36 H         121.3773  155.5786  145.4978 H       1  UNL1        0.0296
     37 H         121.0018  154.2835  144.3824 H       1  UNL1        0.0296
     38 H         126.9688  154.5193  148.3703 H       1  UNL1        0.0266
     39 H         126.6896  155.4691  146.9084 H       1  UNL1        0.0266
     40 H         126.5030  153.5924  145.6409 H       1  UNL1        0.0266
     41 H         126.8683  152.5882  147.0473 H       1  UNL1        0.0266
     42 H         119.3255  153.4571  146.2434 H       1  UNL1        0.0326
     43 H         119.8390  154.9159  147.0711 H       1  UNL1        0.0326
     44 H         123.4659  153.6681  144.3320 H       1  UNL1        0.0560
     45 H         123.1901  155.3500  143.9136 H       1  UNL1        0.0560
     46 H         119.9549  152.1320  148.3669 H       1  UNL1        0.0814
     47 H         120.2917  153.7023  149.1537 H       1  UNL1        0.0814
     48 H         121.2565  152.1982  143.9894 H       1  UNL1        0.0636
     49 H         121.4814  149.7757  143.6924 H       1  UNL1        0.0619
     50 H         122.2259  149.4176  147.8935 H       1  UNL1        0.0829
     51 H         116.8085  153.0656  150.0684 H       1  UNL1        0.0873
     52 H         118.4642  153.1052  150.7078 H       1  UNL1        0.0873
     53 H         121.9865  148.3282  145.6604 H       1  UNL1        0.0633
     54 H         117.5302  148.1669  148.4552 H       1  UNL1        0.0659
     55 H         118.0976  147.9005  150.9912 H       1  UNL1        0.0694
     56 H         117.0605  150.5660  145.5619 H       1  UNL1        0.0660
     57 H         116.3781  149.3307  146.6299 H       1  UNL1        0.0660
     58 H         118.1628  149.4398  146.3651 H       1  UNL1        0.0660
@<TRIPOS>UNITY_ATOM_ATTR
5 1
charge 1
@<TRIPOS>BOND
     1     1    23   ar
     2     1    26   ar
     3     2     6    1
     4     2    15    1
     5     3    24    1
     6     3    27    1
     7     4    16   ar
     8     4    20   ar
     9     5    17    1
    10     5    21    1
    11     5    28    1
    12     5    29    1
    13     6     8    1
    14     6     9    1
    15     6    10    1
    16     7     8    1
    17     7    11    1
    18     7    14    1
    19     7    16    1
    20     8    30    1
    21     8    31    1
    22     9    12    1
    23     9    32    1
    24     9    33    1
    25    10    13    1
    26    10    34    1
    27    10    35    1
    28    11    15    1
    29    11    36    1
    30    11    37    1
    31    12    13    1
    32    12    38    1
    33    12    39    1
    34    13    40    1
    35    13    41    1
    36    14    17    1
    37    14    42    1
    38    14    43    1
    39    15    44    1
    40    15    45    1
    41    16    18   ar
    42    17    46    1
    43    17    47    1
    44    18    19   ar
    45    18    48    1
    46    19    22   ar
    47    19    49    1
    48    20    22   ar
    49    20    50    1
    50    21    23    1
    51    21    51    1
    52    21    52    1
    53    22    53    1
    54    23    24   ar
    55    24    25   ar
    56    25    26   ar
    57    25    54    1
    58    26    55    1
    59    27    56    1
    60    27    57    1
    61    27    58    1
@<TRIPOS>MOLECULE
66553195
 58 61 0 0 0
SMALL
GASTEIGER

@<TRIPOS>ATOM
      1 S         114.2530  152.3870  148.0613 S.2     1  UNL1       -0.0926
      2 O         123.9275  154.8169  145.6984 O.3     1  UNL1       -0.3733
      3 O         116.6006  155.3918  148.6140 O.3     1  UNL1       -0.4941
      4 N         121.2110  151.4942  144.8384 N.ar    1  UNL1       -0.2593
      5 N         117.5370  153.6329  146.4298 N.4     1  UNL1        0.2308
      6 C         123.8802  154.1008  146.9353 C.3     1  UNL1        0.0704
      7 C         121.4328  153.4136  146.3449 C.3     1  UNL1        0.0224
      8 C         122.4247  153.9629  147.4141 C.3     1  UNL1       -0.0124
      9 C         124.7066  154.9119  147.9478 C.3     1  UNL1       -0.0237
     10 C         124.6959  152.8039  146.8765 C.3     1  UNL1       -0.0237
     11 C         121.6758  154.2412  145.0506 C.3     1  UNL1       -0.0181
     12 C         126.1634  154.6084  147.6000 C.3     1  UNL1       -0.0504
     13 C         126.1492  153.2741  146.8585 C.3     1  UNL1       -0.0504
     14 C         119.9769  153.6597  146.8584 C.3     1  UNL1       -0.0013
     15 C         123.1443  154.2560  144.6527 C.3     1  UNL1        0.0492
     16 C         121.5581  151.9078  146.0836 C.ar    1  UNL1        0.0478
     17 C         118.8701  153.2409  145.8829 C.3     1  UNL1       -0.0325
     18 C         121.8832  150.9882  147.0807 C.ar    1  UNL1       -0.0398
     19 C         121.9351  149.6303  146.7692 C.ar    1  UNL1       -0.0586
     20 C         121.2923  150.1729  144.5538 C.ar    1  UNL1        0.0279
     21 C         116.9443  152.7111  147.4457 C.3     1  UNL1        0.0021
     22 C         121.6462  149.2119  145.4791 C.ar    1  UNL1       -0.0436
     23 C         115.7015  153.2949  148.0255 C.ar    1  UNL1        0.0756
     24 C         115.5381  154.5440  148.5916 C.ar    1  UNL1        0.1353
     25 C         114.2079  154.7534  149.0561 C.ar    1  UNL1       -0.0124
     26 C         113.4055  153.6552  148.8311 C.ar    1  UNL1       -0.0203
     27 C         116.3972  156.5680  149.3979 C.3     1  UNL1        0.0788
     28 H         116.8617  153.7113  145.6594 H       1  UNL1        0.2017
     29 H         117.5752  154.5740  146.8514 H       1  UNL1        0.2017
     30 H         122.0830  154.9763  147.6750 H       1  UNL1        0.0302
     31 H         122.3769  153.3968  148.3508 H       1  UNL1        0.0302
     32 H         124.5030  154.5800  148.9736 H       1  UNL1        0.0293
     33 H         124.5111  155.9879  147.8888 H       1  UNL1        0.0293
     34 H         124.4945  152.1803  146.0026 H       1  UNL1        0.0293
     35 H         124.5275  152.2003  147.7764 H       1  UNL1        0.0293
     36 H         121.3647  155.2784  145.2374 H       1  UNL1        0.0296
     37 H         121.0802  153.8860  144.2029 H       1  UNL1        0.0296
     38 H         126.7820  154.5653  148.5022 H       1  UNL1        0.0266
     39 H         126.5786  155.3911  146.9549 H       1  UNL1        0.0266
     40 H         126.4896  153.4193  145.8265 H       1  UNL1        0.0266
     41 H         126.8142  152.5398  147.3237 H       1  UNL1        0.0266
     42 H         119.8551  154.7279  147.0855 H       1  UNL1        0.0326
     43 H         119.8401  153.1318  147.8112 H       1  UNL1        0.0326
     44 H         123.5134  153.2634  144.3791 H       1  UNL1        0.0560
     45 H         123.2743  154.8949  143.7728 H       1  UNL1        0.0560
     46 H         118.9569  153.7700  144.9305 H       1  UNL1        0.0814
     47 H         118.8315  152.1649  145.6960 H       1  UNL1        0.0814
     48 H         122.1113  151.2914  148.0965 H       1  UNL1        0.0636
     49 H         122.2138  148.9035  147.5288 H       1  UNL1        0.0619
     50 H         121.0576  149.9003  143.5280 H       1  UNL1        0.0829
     51 H         117.6867  152.5631  148.2361 H       1  UNL1        0.0873
     52 H         116.7681  151.7565  146.9390 H       1  UNL1        0.0873
     53 H         121.6988  148.1642  145.2027 H       1  UNL1        0.0633
     54 H         113.8311  155.6518  149.5306 H       1  UNL1        0.0659
     55 H         112.3585  153.5386  149.0823 H       1  UNL1        0.0694
     56 H         116.1502  156.3152  150.4347 H       1  UNL1        0.0660
     57 H         115.6270  157.2063  148.9525 H       1  UNL1        0.0660
     58 H         117.3362  157.1297  149.4039 H       1  UNL1        0.0660
@<TRIPOS>UNITY_ATOM_ATTR
5 1
charge 1
@<TRIPOS>BOND
     1     1    23   ar
     2     1    26   ar
     3     2     6    1
     4     2    15    1
     5     3    24    1
     6     3    27    1
     7     4    16   ar
     8     4    20   ar
     9     5    17    1
    10     5    21    1
    11     5    28    1
    12     5    29    1
    13     6     8    1
    14     6     9    1
    15     6    10    1
    16     7     8    1
    17     7    11    1
    18     7    14    1
    19     7    16    1
    20     8    30    1
    21     8    31    1
    22     9    12    1
    23     9    32    1
    24     9    33    1
    25    10    13    1
    26    10    34    1
    27    10    35    1
    28    11    15    1
    29    11    36    1
    30    11    37    1
    31    12    13    1
    32    12    38    1
    33    12    39    1
    34    13    40    1
    35    13    41    1
    36    14    17    1
    37    14    42    1
    38    14    43    1
    39    15    44    1
    40    15    45    1
    41    16    18   ar
    42    17    46    1
    43    17    47    1
    44    18    19   ar
    45    18    48    1
    46    19    22   ar
    47    19    49    1
    48    20    22   ar
    49    20    50    1
    50    21    23    1
    51    21    51    1
    52    21    52    1
    53    22    53    1
    54    23    24   ar
    55    24    25   ar
    56    25    26   ar
    57    25    54    1
    58    26    55    1
    59    27    56    1
    60    27    57    1
    61    27    58    1
@<TRIPOS>MOLECULE
66553195
 58 61 0 0 0
SMALL
GASTEIGER

@<TRIPOS>ATOM
      1 S         114.6659  155.3196  146.5056 S.2     1  UNL1       -0.0926
      2 O         123.9035  154.9954  145.9506 O.3     1  UNL1       -0.3733
      3 O         114.0740  151.6397  145.5223 O.3     1  UNL1       -0.4941
      4 N         120.9682  151.3071  146.9781 N.ar    1  UNL1       -0.2593
      5 N         117.4635  153.7296  146.1511 N.4     1  UNL1        0.2308
      6 C         123.7352  154.1202  147.0703 C.3     1  UNL1        0.0704
      7 C         121.3472  153.5832  146.1863 C.3     1  UNL1        0.0224
      8 C         122.2440  153.9829  147.3955 C.3     1  UNL1       -0.0124
      9 C         124.4901  154.7565  148.2489 C.3     1  UNL1       -0.0237
     10 C         124.5065  152.8045  146.9111 C.3     1  UNL1       -0.0237
     11 C         121.7363  154.4747  144.9803 C.3     1  UNL1       -0.0181
     12 C         125.9608  154.4474  147.9788 C.3     1  UNL1       -0.0504
     13 C         125.9711  153.1936  147.1085 C.3     1  UNL1       -0.0504
     14 C         119.8661  153.8996  146.5996 C.3     1  UNL1       -0.0013
     15 C         123.2428  154.5864  144.7640 C.3     1  UNL1        0.0492
     16 C         121.4303  152.0692  145.9522 C.ar    1  UNL1        0.0478
     17 C         118.8165  153.4884  145.5700 C.3     1  UNL1       -0.0325
     18 C         121.8687  151.4804  144.7676 C.ar    1  UNL1       -0.0398
     19 C         121.8916  150.0895  144.6608 C.ar    1  UNL1       -0.0586
     20 C         121.0212  149.9600  146.8594 C.ar    1  UNL1        0.0279
     21 C         116.3317  153.5193  145.1991 C.3     1  UNL1        0.0021
     22 C         121.4699  149.3111  145.7279 C.ar    1  UNL1       -0.0436
     23 C         115.0162  153.7737  145.8501 C.ar    1  UNL1        0.0756
     24 C         113.9554  152.9042  145.9990 C.ar    1  UNL1        0.1353
     25 C         112.8555  153.5095  146.6742 C.ar    1  UNL1       -0.0124
     26 C         113.1110  154.8226  147.0065 C.ar    1  UNL1       -0.0203
     27 C         112.8747  150.8700  145.5693 C.3     1  UNL1        0.0788
     28 H         117.3881  154.6845  146.5246 H       1  UNL1        0.2017
     29 H         117.3207  153.1016  146.9542 H       1  UNL1        0.2017
     30 H         121.9026  154.9692  147.7440 H       1  UNL1        0.0302
     31 H         122.1009  153.3009  148.2436 H       1  UNL1        0.0302
     32 H         124.1914  154.2969  149.1992 H       1  UNL1        0.0293
     33 H         124.3291  155.8374  148.3224 H       1  UNL1        0.0293
     34 H         124.3827  152.3171  145.9425 H       1  UNL1        0.0293
     35 H         124.2135  152.0898  147.6902 H       1  UNL1        0.0293
     36 H         121.3702  155.4923  145.1764 H       1  UNL1        0.0296
     37 H         121.2490  154.1481  144.0548 H       1  UNL1        0.0296
     38 H         126.5136  154.3010  148.9123 H       1  UNL1        0.0266
     39 H         126.4361  155.2772  147.4430 H       1  UNL1        0.0266
     40 H         126.4409  153.4155  146.1432 H       1  UNL1        0.0266
     41 H         126.5397  152.3804  147.5707 H       1  UNL1        0.0266
     42 H         119.7650  154.9772  146.7915 H       1  UNL1        0.0326
     43 H         119.6357  153.4131  147.5581 H       1  UNL1        0.0326
     44 H         123.6873  153.6635  144.3856 H       1  UNL1        0.0560
     45 H         123.4374  155.3514  144.0044 H       1  UNL1        0.0560
     46 H         118.8921  154.0944  144.6620 H       1  UNL1        0.0814
     47 H         118.8573  152.4269  145.3127 H       1  UNL1        0.0814
     48 H         122.2118  152.0578  143.9174 H       1  UNL1        0.0636
     49 H         122.2541  149.6157  143.7512 H       1  UNL1        0.0619
     50 H         120.6843  149.4005  147.7282 H       1  UNL1        0.0829
     51 H         116.4148  152.4903  144.8346 H       1  UNL1        0.0873
     52 H         116.4850  154.2030  144.3565 H       1  UNL1        0.0873
     53 H         121.4971  148.2278  145.6797 H       1  UNL1        0.0633
     54 H         111.9141  153.0292  146.9133 H       1  UNL1        0.0659
     55 H         112.4518  155.5141  147.5167 H       1  UNL1        0.0694
     56 H         113.0814  149.9012  145.1044 H       1  UNL1        0.0660
     57 H         112.0728  151.3511  144.9987 H       1  UNL1        0.0660
     58 H         112.5664  150.6869  146.6040 H       1  UNL1        0.0660
@<TRIPOS>UNITY_ATOM_ATTR
5 1
charge 1
@<TRIPOS>BOND
     1     1    23   ar
     2     1    26   ar
     3     2     6    1
     4     2    15    1
     5     3    24    1
     6     3    27    1
     7     4    16   ar
     8     4    20   ar
     9     5    17    1
    10     5    21    1
    11     5    28    1
    12     5    29    1
    13     6     8    1
    14     6     9    1
    15     6    10    1
    16     7     8    1
    17     7    11    1
    18     7    14    1
    19     7    16    1
    20     8    30    1
    21     8    31    1
    22     9    12    1
    23     9    32    1
    24     9    33    1
    25    10    13    1
    26    10    34    1
    27    10    35    1
    28    11    15    1
    29    11    36    1
    30    11    37    1
    31    12    13    1
    32    12    38    1
    33    12    39    1
    34    13    40    1
    35    13    41    1
    36    14    17    1
    37    14    42    1
    38    14    43    1
    39    15    44    1
    40    15    45    1
    41    16    18   ar
    42    17    46    1
    43    17    47    1
    44    18    19   ar
    45    18    48    1
    46    19    22   ar
    47    19    49    1
    48    20    22   ar
    49    20    50    1
    50    21    23    1
    51    21    51    1
    52    21    52    1
    53    22    53    1
    54    23    24   ar
    55    24    25   ar
    56    25    26   ar
    57    25    54    1
    58    26    55    1
    59    27    56    1
    60    27    57    1
    61    27    58    1
@<TRIPOS>MOLECULE
66553195
 58 61 0 0 0
SMALL
GASTEIGER

@<TRIPOS>ATOM
      1 S         116.1394  155.4169  151.3193 S.2     1  UNL1       -0.0926
      2 O         123.8830  154.9110  145.7300 O.3     1  UNL1       -0.3733
      3 O         116.2567  155.5186  147.4708 O.3     1  UNL1       -0.4941
      4 N         121.6451  151.2703  147.2637 N.ar    1  UNL1       -0.2593
      5 N         118.1957  153.5470  148.6888 N.4     1  UNL1        0.2308
      6 C         123.8695  154.1068  146.9138 C.3     1  UNL1        0.0704
      7 C         121.3787  153.5497  146.4200 C.3     1  UNL1        0.0224
      8 C         122.4380  154.0077  147.4679 C.3     1  UNL1       -0.0124
      9 C         124.7965  154.7971  147.9279 C.3     1  UNL1       -0.0237
     10 C         124.6047  152.7752  146.7152 C.3     1  UNL1       -0.0237
     11 C         121.5813  154.4424  145.1646 C.3     1  UNL1       -0.0181
     12 C         126.2102  154.4490  147.4644 C.3     1  UNL1       -0.0504
     13 C         126.0807  153.1637  146.6510 C.3     1  UNL1       -0.0504
     14 C         119.9375  153.8358  146.9578 C.3     1  UNL1       -0.0013
     15 C         123.0269  154.4618  144.6889 C.3     1  UNL1        0.0492
     16 C         121.4801  152.0429  146.1569 C.ar    1  UNL1        0.0478
     17 C         119.5346  153.0725  148.2242 C.3     1  UNL1       -0.0325
     18 C         121.3459  151.4682  144.8939 C.ar    1  UNL1       -0.0398
     19 C         121.4406  150.0835  144.7584 C.ar    1  UNL1       -0.0586
     20 C         121.7567  149.9303  147.1012 C.ar    1  UNL1        0.0279
     21 C         118.1876  154.7655  149.5529 C.3     1  UNL1        0.0021
     22 C         121.6594  149.2971  145.8792 C.ar    1  UNL1       -0.0436
     23 C         116.7933  155.2536  149.7486 C.ar    1  UNL1        0.0756
     24 C         115.8881  155.6247  148.7745 C.ar    1  UNL1        0.1353
     25 C         114.6455  156.0471  149.3278 C.ar    1  UNL1       -0.0124
     26 C         114.6493  155.9852  150.7052 C.ar    1  UNL1       -0.0203
     27 C         115.3667  156.1579  146.5555 C.3     1  UNL1        0.0788
     28 H         117.7296  152.7959  149.2124 H       1  UNL1        0.2017
     29 H         117.5829  153.7354  147.8811 H       1  UNL1        0.2017
     30 H         122.1483  155.0137  147.8063 H       1  UNL1        0.0302
     31 H         122.4300  153.3784  148.3657 H       1  UNL1        0.0302
     32 H         124.6380  154.3983  148.9376 H       1  UNL1        0.0293
     33 H         124.6563  155.8829  147.9599 H       1  UNL1        0.0293
     34 H         124.3243  152.2309  145.8109 H       1  UNL1        0.0293
     35 H         124.4440  152.1138  147.5754 H       1  UNL1        0.0293
     36 H         121.3140  155.4754  145.4297 H       1  UNL1        0.0296
     37 H         120.9117  154.1623  144.3445 H       1  UNL1        0.0296
     38 H         126.8859  154.3248  148.3167 H       1  UNL1        0.0266
     39 H         126.6186  155.2491  146.8362 H       1  UNL1        0.0266
     40 H         126.3810  153.3494  145.6130 H       1  UNL1        0.0266
     41 H         126.7213  152.3663  147.0404 H       1  UNL1        0.0266
     42 H         119.2084  153.6008  146.1690 H       1  UNL1        0.0326
     43 H         119.8412  154.9137  147.1413 H       1  UNL1        0.0326
     44 H         123.3582  153.4913  144.3099 H       1  UNL1        0.0560
     45 H         123.1245  155.1711  143.8602 H       1  UNL1        0.0560
     46 H         119.3920  152.0087  148.0204 H       1  UNL1        0.0814
     47 H         120.2333  153.1971  149.0557 H       1  UNL1        0.0814
     48 H         121.1815  152.0572  143.9987 H       1  UNL1        0.0636
     49 H         121.3564  149.6224  143.7769 H       1  UNL1        0.0619
     50 H         121.9337  149.3616  148.0104 H       1  UNL1        0.0829
     51 H         118.7854  155.5349  149.0538 H       1  UNL1        0.0873
     52 H         118.6791  154.4894  150.4916 H       1  UNL1        0.0873
     53 H         121.7556  148.2195  145.7993 H       1  UNL1        0.0633
     54 H         113.7779  156.3782  148.7699 H       1  UNL1        0.0659
     55 H         113.8439  156.2457  151.3809 H       1  UNL1        0.0694
     56 H         115.2437  157.2192  146.7972 H       1  UNL1        0.0660
     57 H         114.4001  155.6446  146.5279 H       1  UNL1        0.0660
     58 H         115.8113  156.0904  145.5579 H       1  UNL1        0.0660
@<TRIPOS>UNITY_ATOM_ATTR
5 1
charge 1
@<TRIPOS>BOND
     1     1    23   ar
     2     1    26   ar
     3     2     6    1
     4     2    15    1
     5     3    24    1
     6     3    27    1
     7     4    16   ar
     8     4    20   ar
     9     5    17    1
    10     5    21    1
    11     5    28    1
    12     5    29    1
    13     6     8    1
    14     6     9    1
    15     6    10    1
    16     7     8    1
    17     7    11    1
    18     7    14    1
    19     7    16    1
    20     8    30    1
    21     8    31    1
    22     9    12    1
    23     9    32    1
    24     9    33    1
    25    10    13    1
    26    10    34    1
    27    10    35    1
    28    11    15    1
    29    11    36    1
    30    11    37    1
    31    12    13    1
    32    12    38    1
    33    12    39    1
    34    13    40    1
    35    13    41    1
    36    14    17    1
    37    14    42    1
    38    14    43    1
    39    15    44    1
    40    15    45    1
    41    16    18   ar
    42    17    46    1
    43    17    47    1
    44    18    19   ar
    45    18    48    1
    46    19    22   ar
    47    19    49    1
    48    20    22   ar
    49    20    50    1
    50    21    23    1
    51    21    51    1
    52    21    52    1
    53    22    53    1
    54    23    24   ar
    55    24    25   ar
    56    25    26   ar
    57    25    54    1
    58    26    55    1
    59    27    56    1
    60    27    57    1
    61    27    58    1
@<TRIPOS>MOLECULE
66553195
 58 61 0 0 0
SMALL
GASTEIGER

@<TRIPOS>ATOM
      1 S         114.6246  156.7819  146.5442 S.2     1  UNL1       -0.0926
      2 O         123.8827  154.8645  145.6260 O.3     1  UNL1       -0.3733
      3 O         115.8907  154.0756  148.9804 O.3     1  UNL1       -0.4941
      4 N         121.4854  151.4207  147.3271 N.ar    1  UNL1       -0.2593
      5 N         118.1158  155.4447  147.7405 N.4     1  UNL1        0.2308
      6 C         123.8205  154.1293  146.8551 C.3     1  UNL1        0.0704
      7 C         121.3167  153.6560  146.3427 C.3     1  UNL1        0.0224
      8 C         122.3759  154.1299  147.3827 C.3     1  UNL1       -0.0124
      9 C         124.7551  154.8451  147.8451 C.3     1  UNL1       -0.0237
     10 C         124.5069  152.7624  146.7514 C.3     1  UNL1       -0.0237
     11 C         121.5729  154.4580  145.0411 C.3     1  UNL1       -0.0181
     12 C         126.1623  154.4180  147.4325 C.3     1  UNL1       -0.0504
     13 C         125.9984  153.0898  146.6984 C.3     1  UNL1       -0.0504
     14 C         119.8589  153.9175  146.8578 C.3     1  UNL1       -0.0013
     15 C         123.0293  154.3840  144.5958 C.3     1  UNL1        0.0492
     16 C         121.3861  152.1275  146.1715 C.ar    1  UNL1        0.0478
     17 C         119.5372  155.3432  147.2992 C.3     1  UNL1       -0.0325
     18 C         121.2736  151.4796  144.9411 C.ar    1  UNL1       -0.0398
     19 C         121.3175  150.0864  144.8948 C.ar    1  UNL1       -0.0586
     20 C         121.5384  150.0706  147.2539 C.ar    1  UNL1        0.0279
     21 C         117.0770  155.4899  146.6670 C.3     1  UNL1        0.0021
     22 C         121.4600  149.3650  146.0704 C.ar    1  UNL1       -0.0436
     23 C         115.7119  155.6594  147.2425 C.ar    1  UNL1        0.0756
     24 C         115.1433  154.9928  148.3100 C.ar    1  UNL1        0.1353
     25 C         113.8043  155.4149  148.5550 C.ar    1  UNL1       -0.0124
     26 C         113.3976  156.3841  147.6630 C.ar    1  UNL1       -0.0203
     27 C         115.1703  153.3391  149.9695 C.3     1  UNL1        0.0788
     28 H         117.9965  156.2912  148.3113 H       1  UNL1        0.2017
     29 H         117.8653  154.6684  148.3749 H       1  UNL1        0.2017
     30 H         122.1520  155.1726  147.6415 H       1  UNL1        0.0302
     31 H         122.3060  153.5674  148.3219 H       1  UNL1        0.0302
     32 H         124.5628  154.5141  148.8732 H       1  UNL1        0.0293
     33 H         124.6560  155.9353  147.8095 H       1  UNL1        0.0293
     34 H         124.2256  152.1762  145.8741 H       1  UNL1        0.0293
     35 H         124.3027  152.1601  147.6451 H       1  UNL1        0.0293
     36 H         121.3556  155.5169  145.2276 H       1  UNL1        0.0296
     37 H         120.9059  154.1520  144.2283 H       1  UNL1        0.0296
     38 H         126.8180  154.3236  148.3041 H       1  UNL1        0.0266
     39 H         126.6108  155.1617  146.7639 H       1  UNL1        0.0266
     40 H         126.3284  153.1975  145.6585 H       1  UNL1        0.0266
     41 H         126.5983  152.2948  147.1525 H       1  UNL1        0.0266
     42 H         119.6475  153.2573  147.7113 H       1  UNL1        0.0326
     43 H         119.1594  153.6127  146.0682 H       1  UNL1        0.0326
     44 H         123.3276  153.3792  144.2858 H       1  UNL1        0.0560
     45 H         123.1730  155.0345  143.7265 H       1  UNL1        0.0560
     46 H         120.1251  155.6280  148.1756 H       1  UNL1        0.0814
     47 H         119.6840  156.0875  146.5129 H       1  UNL1        0.0814
     48 H         121.1585  152.0158  144.0066 H       1  UNL1        0.0636
     49 H         121.2461  149.5668  143.9422 H       1  UNL1        0.0619
     50 H         121.6504  149.5563  148.2046 H       1  UNL1        0.0829
     51 H         117.1314  154.5475  146.1135 H       1  UNL1        0.0873
     52 H         117.3513  156.3145  146.0006 H       1  UNL1        0.0873
     53 H         121.5081  148.2816  146.0634 H       1  UNL1        0.0633
     54 H         113.1507  155.0454  149.3361 H       1  UNL1        0.0659
     55 H         112.4347  156.8776  147.6161 H       1  UNL1        0.0694
     56 H         115.8555  152.6029  150.4004 H       1  UNL1        0.0660
     57 H         114.3297  152.7962  149.5241 H       1  UNL1        0.0660
     58 H         114.8325  153.9961  150.7778 H       1  UNL1        0.0660
@<TRIPOS>UNITY_ATOM_ATTR
5 1
charge 1
@<TRIPOS>BOND
     1     1    23   ar
     2     1    26   ar
     3     2     6    1
     4     2    15    1
     5     3    24    1
     6     3    27    1
     7     4    16   ar
     8     4    20   ar
     9     5    17    1
    10     5    21    1
    11     5    28    1
    12     5    29    1
    13     6     8    1
    14     6     9    1
    15     6    10    1
    16     7     8    1
    17     7    11    1
    18     7    14    1
    19     7    16    1
    20     8    30    1
    21     8    31    1
    22     9    12    1
    23     9    32    1
    24     9    33    1
    25    10    13    1
    26    10    34    1
    27    10    35    1
    28    11    15    1
    29    11    36    1
    30    11    37    1
    31    12    13    1
    32    12    38    1
    33    12    39    1
    34    13    40    1
    35    13    41    1
    36    14    17    1
    37    14    42    1
    38    14    43    1
    39    15    44    1
    40    15    45    1
    41    16    18   ar
    42    17    46    1
    43    17    47    1
    44    18    19   ar
    45    18    48    1
    46    19    22   ar
    47    19    49    1
    48    20    22   ar
    49    20    50    1
    50    21    23    1
    51    21    51    1
    52    21    52    1
    53    22    53    1
    54    23    24   ar
    55    24    25   ar
    56    25    26   ar
    57    25    54    1
    58    26    55    1
    59    27    56    1
    60    27    57    1
    61    27    58    1
@<TRIPOS>MOLECULE
66553195
 58 61 0 0 0
SMALL
GASTEIGER

@<TRIPOS>ATOM
      1 S         115.1650  154.0700  149.4090 S.2     1  UNL1       -0.0926
      2 O         124.1193  154.8135  145.7086 O.3     1  UNL1       -0.3733
      3 O         117.2185  157.3054  149.7935 O.3     1  UNL1       -0.4941
      4 N         121.5439  151.3373  147.1427 N.ar    1  UNL1       -0.2593
      5 N         118.3112  155.4213  147.6806 N.4     1  UNL1        0.2308
      6 C         124.0007  154.0064  146.8868 C.3     1  UNL1        0.0704
      7 C         121.5058  153.6223  146.2677 C.3     1  UNL1        0.0224
      8 C         122.5406  154.0111  147.3659 C.3     1  UNL1       -0.0124
      9 C         124.9152  154.6382  147.9501 C.3     1  UNL1       -0.0237
     10 C         124.6580  152.6314  146.7231 C.3     1  UNL1       -0.0237
     11 C         121.8205  154.4882  145.0219 C.3     1  UNL1       -0.0181
     12 C         126.3257  154.2010  147.5620 C.3     1  UNL1       -0.0504
     13 C         126.1580  152.9214  146.7472 C.3     1  UNL1       -0.0504
     14 C         120.0396  153.8912  146.7574 C.3     1  UNL1       -0.0013
     15 C         123.2913  154.4166  144.6231 C.3     1  UNL1        0.0492
     16 C         121.5478  152.1034  146.0198 C.ar    1  UNL1        0.0478
     17 C         119.7505  155.2843  147.3095 C.3     1  UNL1       -0.0325
     18 C         121.5169  151.5207  144.7531 C.ar    1  UNL1       -0.0398
     19 C         121.5357  150.1306  144.6391 C.ar    1  UNL1       -0.0586
     20 C         121.5710  149.9916  147.0042 C.ar    1  UNL1        0.0279
     21 C         117.8362  154.5953  148.8366 C.3     1  UNL1        0.0021
     22 C         121.5698  149.3481  145.7835 C.ar    1  UNL1       -0.0436
     23 C         116.5283  155.0996  149.3434 C.ar    1  UNL1        0.0756
     24 C         116.2385  156.3644  149.8142 C.ar    1  UNL1        0.1353
     25 C         114.8834  156.4848  150.2356 C.ar    1  UNL1       -0.0124
     26 C         114.1882  155.3053  150.0722 C.ar    1  UNL1       -0.0203
     27 C         116.9197  158.4792  150.5501 C.3     1  UNL1        0.0788
     28 H         117.6943  155.2516  146.8772 H       1  UNL1        0.2017
     29 H         118.1445  156.4025  147.9544 H       1  UNL1        0.2017
     30 H         122.3332  155.0430  147.6758 H       1  UNL1        0.0302
     31 H         122.4266  153.3986  148.2688 H       1  UNL1        0.0302
     32 H         124.6780  154.2514  148.9491 H       1  UNL1        0.0293
     33 H         124.8424  155.7307  147.9772 H       1  UNL1        0.0293
     34 H         124.3977  152.1085  145.8006 H       1  UNL1        0.0293
     35 H         124.4040  151.9802  147.5685 H       1  UNL1        0.0293
     36 H         121.6104  155.5387  145.2575 H       1  UNL1        0.0296
     37 H         121.1789  154.2353  144.1710 H       1  UNL1        0.0296
     38 H         126.9478  154.0411  148.4485 H       1  UNL1        0.0266
     39 H         126.8141  154.9705  146.9532 H       1  UNL1        0.0266
     40 H         126.5326  153.0781  145.7289 H       1  UNL1        0.0266
     41 H         126.7188  152.0860  147.1784 H       1  UNL1        0.0266
     42 H         119.7926  153.1669  147.5444 H       1  UNL1        0.0326
     43 H         119.3451  153.6822  145.9311 H       1  UNL1        0.0326
     44 H         123.5845  153.4286  144.2590 H       1  UNL1        0.0560
     45 H         123.4754  155.1180  143.8023 H       1  UNL1        0.0560
     46 H         120.3222  155.5119  148.2128 H       1  UNL1        0.0814
     47 H         119.9341  156.0625  146.5646 H       1  UNL1        0.0814
     48 H         121.4874  152.1051  143.8411 H       1  UNL1        0.0636
     49 H         121.5293  149.6609  143.6584 H       1  UNL1        0.0619
     50 H         121.5957  149.4275  147.9327 H       1  UNL1        0.0829
     51 H         118.5949  154.6663  149.6238 H       1  UNL1        0.0873
     52 H         117.7766  153.5600  148.4875 H       1  UNL1        0.0873
     53 H         121.5943  148.2655  145.7241 H       1  UNL1        0.0633
     54 H         114.4164  157.3763  150.6366 H       1  UNL1        0.0659
     55 H         113.1495  155.1117  150.3098 H       1  UNL1        0.0694
     56 H         117.8105  159.1145  150.5438 H       1  UNL1        0.0660
     57 H         116.6910  158.2317  151.5925 H       1  UNL1        0.0660
     58 H         116.1017  159.0428  150.0898 H       1  UNL1        0.0660
@<TRIPOS>UNITY_ATOM_ATTR
5 1
charge 1
@<TRIPOS>BOND
     1     1    23   ar
     2     1    26   ar
     3     2     6    1
     4     2    15    1
     5     3    24    1
     6     3    27    1
     7     4    16   ar
     8     4    20   ar
     9     5    17    1
    10     5    21    1
    11     5    28    1
    12     5    29    1
    13     6     8    1
    14     6     9    1
    15     6    10    1
    16     7     8    1
    17     7    11    1
    18     7    14    1
    19     7    16    1
    20     8    30    1
    21     8    31    1
    22     9    12    1
    23     9    32    1
    24     9    33    1
    25    10    13    1
    26    10    34    1
    27    10    35    1
    28    11    15    1
    29    11    36    1
    30    11    37    1
    31    12    13    1
    32    12    38    1
    33    12    39    1
    34    13    40    1
    35    13    41    1
    36    14    17    1
    37    14    42    1
    38    14    43    1
    39    15    44    1
    40    15    45    1
    41    16    18   ar
    42    17    46    1
    43    17    47    1
    44    18    19   ar
    45    18    48    1
    46    19    22   ar
    47    19    49    1
    48    20    22   ar
    49    20    50    1
    50    21    23    1
    51    21    51    1
    52    21    52    1
    53    22    53    1
    54    23    24   ar
    55    24    25   ar
    56    25    26   ar
    57    25    54    1
    58    26    55    1
    59    27    56    1
    60    27    57    1
    61    27    58    1
@<TRIPOS>MOLECULE
66553195
 58 61 0 0 0
SMALL
GASTEIGER

@<TRIPOS>ATOM
      1 S         115.8634  151.2403  143.8770 S.2     1  UNL1       -0.0926
      2 O         124.0277  155.0273  145.7123 O.3     1  UNL1       -0.3733
      3 O         116.5170  151.6945  147.6476 O.3     1  UNL1       -0.4941
      4 N         121.0184  151.5287  147.0318 N.ar    1  UNL1       -0.2593
      5 N         117.5417  153.9779  146.1587 N.4     1  UNL1        0.2308
      6 C         123.8478  154.2308  146.8877 C.3     1  UNL1        0.0704
      7 C         121.4211  153.7437  146.0899 C.3     1  UNL1        0.0224
      8 C         122.3602  154.1816  147.2525 C.3     1  UNL1       -0.0124
      9 C         124.6575  154.9020  148.0092 C.3     1  UNL1       -0.0237
     10 C         124.5558  152.8739  146.7933 C.3     1  UNL1       -0.0237
     11 C         121.8132  154.5518  144.8277 C.3     1  UNL1       -0.0181
     12 C         126.1062  154.5079  147.7311 C.3     1  UNL1       -0.0504
     13 C         126.0404  153.2063  146.9367 C.3     1  UNL1       -0.0504
     14 C         119.9620  154.1337  146.5157 C.3     1  UNL1       -0.0013
     15 C         123.3169  154.5799  144.5686 C.3     1  UNL1        0.0492
     16 C         121.4486  152.2168  145.9416 C.ar    1  UNL1        0.0478
     17 C         118.8727  153.6694  145.5512 C.3     1  UNL1       -0.0325
     18 C         121.7971  151.5501  144.7679 C.ar    1  UNL1       -0.0398
     19 C         121.7574  150.1562  144.7337 C.ar    1  UNL1       -0.0586
     20 C         121.0079  150.1766  146.9801 C.ar    1  UNL1        0.0279
     21 C         116.3610  153.5405  145.3508 C.3     1  UNL1        0.0021
     22 C         121.3638  149.4523  145.8614 C.ar    1  UNL1       -0.0436
     23 C         116.1867  152.0598  145.3434 C.ar    1  UNL1        0.0756
     24 C         116.2455  151.1898  146.4146 C.ar    1  UNL1        0.1353
     25 C         116.0204  149.8389  146.0219 C.ar    1  UNL1       -0.0124
     26 C         115.7969  149.7269  144.6663 C.ar    1  UNL1       -0.0203
     27 C         116.4852  150.7305  148.6998 C.3     1  UNL1        0.0788
     28 H         117.4608  154.9780  146.3699 H       1  UNL1        0.2017
     29 H         117.4694  153.4792  147.0613 H       1  UNL1        0.2017
     30 H         122.0682  155.2022  147.5424 H       1  UNL1        0.0302
     31 H         122.2081  153.5626  148.1462 H       1  UNL1        0.0302
     32 H         124.3594  154.5162  148.9920 H       1  UNL1        0.0293
     33 H         124.5477  155.9917  148.0183 H       1  UNL1        0.0293
     34 H         124.3879  152.3357  145.8588 H       1  UNL1        0.0293
     35 H         124.2495  152.2214  147.6204 H       1  UNL1        0.0293
     36 H         121.4990  155.5942  144.9783 H       1  UNL1        0.0296
     37 H         121.2849  154.2003  143.9344 H       1  UNL1        0.0296
     38 H         126.6707  154.3899  148.6615 H       1  UNL1        0.0266
     39 H         126.6085  155.2815  147.1388 H       1  UNL1        0.0266
     40 H         126.4966  153.3499  145.9503 H       1  UNL1        0.0266
     41 H         126.5830  152.3963  147.4343 H       1  UNL1        0.0266
     42 H         119.8925  155.2247  146.6280 H       1  UNL1        0.0326
     43 H         119.7493  153.7254  147.5142 H       1  UNL1        0.0326
     44 H         123.7081  153.6157  144.2367 H       1  UNL1        0.0560
     45 H         123.5257  155.2885  143.7597 H       1  UNL1        0.0560
     46 H         118.9233  154.2049  144.5984 H       1  UNL1        0.0814
     47 H         118.9013  152.5922  145.3730 H       1  UNL1        0.0814
     48 H         122.1117  152.0689  143.8702 H       1  UNL1        0.0636
     49 H         122.0468  149.6220  143.8315 H       1  UNL1        0.0619
     50 H         120.6977  149.6771  147.8939 H       1  UNL1        0.0829
     51 H         116.4831  153.9698  144.3507 H       1  UNL1        0.0873
     52 H         115.4882  154.0096  145.8185 H       1  UNL1        0.0873
     53 H         121.3423  148.3679  145.8681 H       1  UNL1        0.0633
     54 H         116.0169  148.9761  146.6770 H       1  UNL1        0.0659
     55 H         115.5967  148.8249  144.1014 H       1  UNL1        0.0694
     56 H         115.4969  150.2652  148.7795 H       1  UNL1        0.0660
     57 H         116.6855  151.2559  149.6385 H       1  UNL1        0.0660
     58 H         117.2676  149.9762  148.5641 H       1  UNL1        0.0660
@<TRIPOS>UNITY_ATOM_ATTR
5 1
charge 1
@<TRIPOS>BOND
     1     1    23   ar
     2     1    26   ar
     3     2     6    1
     4     2    15    1
     5     3    24    1
     6     3    27    1
     7     4    16   ar
     8     4    20   ar
     9     5    17    1
    10     5    21    1
    11     5    28    1
    12     5    29    1
    13     6     8    1
    14     6     9    1
    15     6    10    1
    16     7     8    1
    17     7    11    1
    18     7    14    1
    19     7    16    1
    20     8    30    1
    21     8    31    1
    22     9    12    1
    23     9    32    1
    24     9    33    1
    25    10    13    1
    26    10    34    1
    27    10    35    1
    28    11    15    1
    29    11    36    1
    30    11    37    1
    31    12    13    1
    32    12    38    1
    33    12    39    1
    34    13    40    1
    35    13    41    1
    36    14    17    1
    37    14    42    1
    38    14    43    1
    39    15    44    1
    40    15    45    1
    41    16    18   ar
    42    17    46    1
    43    17    47    1
    44    18    19   ar
    45    18    48    1
    46    19    22   ar
    47    19    49    1
    48    20    22   ar
    49    20    50    1
    50    21    23    1
    51    21    51    1
    52    21    52    1
    53    22    53    1
    54    23    24   ar
    55    24    25   ar
    56    25    26   ar
    57    25    54    1
    58    26    55    1
    59    27    56    1
    60    27    57    1
    61    27    58    1
@<TRIPOS>MOLECULE
66553195
 58 61 0 0 0
SMALL
GASTEIGER

@<TRIPOS>ATOM
      1 S         116.1560  151.1547  143.7064 S.2     1  UNL1       -0.0926
      2 O         123.9347  155.0257  145.8672 O.3     1  UNL1       -0.3733
      3 O         116.6087  151.0861  147.5319 O.3     1  UNL1       -0.4941
      4 N         121.0701  151.3834  147.0760 N.ar    1  UNL1       -0.2593
      5 N         117.4943  153.6654  146.3805 N.4     1  UNL1        0.2308
      6 C         123.8009  154.1676  147.0050 C.3     1  UNL1        0.0704
      7 C         121.3724  153.6555  146.2353 C.3     1  UNL1        0.0224
      8 C         122.3232  154.0631  147.3990 C.3     1  UNL1       -0.0124
      9 C         124.6213  154.8018  148.1399 C.3     1  UNL1       -0.0237
     10 C         124.5387  152.8350  146.8263 C.3     1  UNL1       -0.0237
     11 C         121.7130  154.5379  145.0088 C.3     1  UNL1       -0.0181
     12 C         126.0719  154.4594  147.8073 C.3     1  UNL1       -0.0504
     13 C         126.0179  153.1968  146.9516 C.3     1  UNL1       -0.0504
     14 C         119.9094  153.9727  146.7060 C.3     1  UNL1       -0.0013
     15 C         123.2089  154.6185  144.7181 C.3     1  UNL1        0.0492
     16 C         121.4432  152.1385  146.0094 C.ar    1  UNL1        0.0478
     17 C         118.8273  153.5509  145.7142 C.3     1  UNL1       -0.0325
     18 C         121.7700  151.5428  144.7921 C.ar    1  UNL1       -0.0398
     19 C         121.7680  150.1517  144.6876 C.ar    1  UNL1       -0.0586
     20 C         121.0975  150.0362  146.9560 C.ar    1  UNL1        0.0279
     21 C         116.3331  153.2364  145.5390 C.3     1  UNL1        0.0021
     22 C         121.4344  149.3802  145.7902 C.ar    1  UNL1       -0.0436
     23 C         116.3217  151.7655  145.2954 C.ar    1  UNL1        0.0756
     24 C         116.4441  150.7518  146.2247 C.ar    1  UNL1        0.1353
     25 C         116.4037  149.4621  145.6208 C.ar    1  UNL1       -0.0124
     26 C         116.2492  149.5388  144.2529 C.ar    1  UNL1       -0.0203
     27 C         116.6223  149.9752  148.4277 C.3     1  UNL1        0.0788
     28 H         117.3375  154.6189  146.7237 H       1  UNL1        0.2017
     29 H         117.4882  153.0483  147.2095 H       1  UNL1        0.2017
     30 H         122.0116  155.0609  147.7426 H       1  UNL1        0.0302
     31 H         122.2063  153.3992  148.2651 H       1  UNL1        0.0302
     32 H         124.3573  154.3592  149.1084 H       1  UNL1        0.0293
     33 H         124.4854  155.8865  148.2072 H       1  UNL1        0.0293
     34 H         124.3612  152.3397  145.8702 H       1  UNL1        0.0293
     35 H         124.2683  152.1349  147.6266 H       1  UNL1        0.0293
     36 H         121.3756  155.5621  145.2214 H       1  UNL1        0.0296
     37 H         121.1729  154.2192  144.1103 H       1  UNL1        0.0296
     38 H         126.6631  154.3110  148.7166 H       1  UNL1        0.0266
     39 H         126.5393  155.2736  147.2415 H       1  UNL1        0.0266
     40 H         126.4465  153.3994  145.9631 H       1  UNL1        0.0266
     41 H         126.5915  152.3772  147.3959 H       1  UNL1        0.0266
     42 H         119.8087  155.0499  146.8986 H       1  UNL1        0.0326
     43 H         119.7213  153.4860  147.6736 H       1  UNL1        0.0326
     44 H         123.6156  153.6825  144.3288 H       1  UNL1        0.0560
     45 H         123.3808  155.3721  143.9420 H       1  UNL1        0.0560
     46 H         118.8082  154.2076  144.8390 H       1  UNL1        0.0814
     47 H         118.9353  152.5131  145.3933 H       1  UNL1        0.0814
     48 H         122.0379  152.1157  143.9123 H       1  UNL1        0.0636
     49 H         122.0402  149.6727  143.7497 H       1  UNL1        0.0619
     50 H         120.8353  149.4824  147.8534 H       1  UNL1        0.0829
     51 H         116.3702  153.8304  144.6198 H       1  UNL1        0.0873
     52 H         115.4352  153.5260  146.0959 H       1  UNL1        0.0873
     53 H         121.4448  148.2967  145.7422 H       1  UNL1        0.0633
     54 H         116.4843  148.5131  146.1369 H       1  UNL1        0.0659
     55 H         116.1865  148.7195  143.5477 H       1  UNL1        0.0694
     56 H         116.7082  150.3689  149.4449 H       1  UNL1        0.0660
     57 H         117.4899  149.3334  148.2416 H       1  UNL1        0.0660
     58 H         115.6889  149.4054  148.3659 H       1  UNL1        0.0660
@<TRIPOS>UNITY_ATOM_ATTR
5 1
charge 1
@<TRIPOS>BOND
     1     1    23   ar
     2     1    26   ar
     3     2     6    1
     4     2    15    1
     5     3    24    1
     6     3    27    1
     7     4    16   ar
     8     4    20   ar
     9     5    17    1
    10     5    21    1
    11     5    28    1
    12     5    29    1
    13     6     8    1
    14     6     9    1
    15     6    10    1
    16     7     8    1
    17     7    11    1
    18     7    14    1
    19     7    16    1
    20     8    30    1
    21     8    31    1
    22     9    12    1
    23     9    32    1
    24     9    33    1
    25    10    13    1
    26    10    34    1
    27    10    35    1
    28    11    15    1
    29    11    36    1
    30    11    37    1
    31    12    13    1
    32    12    38    1
    33    12    39    1
    34    13    40    1
    35    13    41    1
    36    14    17    1
    37    14    42    1
    38    14    43    1
    39    15    44    1
    40    15    45    1
    41    16    18   ar
    42    17    46    1
    43    17    47    1
    44    18    19   ar
    45    18    48    1
    46    19    22   ar
    47    19    49    1
    48    20    22   ar
    49    20    50    1
    50    21    23    1
    51    21    51    1
    52    21    52    1
    53    22    53    1
    54    23    24   ar
    55    24    25   ar
    56    25    26   ar
    57    25    54    1
    58    26    55    1
    59    27    56    1
    60    27    57    1
    61    27    58    1
@<TRIPOS>MOLECULE
66553195
 58 61 0 0 0
SMALL
GASTEIGER

@<TRIPOS>ATOM
      1 S         116.6049  158.1403  145.5134 S.2     1  UNL1       -0.0926
      2 O         124.2305  154.6054  145.6640 O.3     1  UNL1       -0.3733
      3 O         120.1690  158.8390  146.8002 O.3     1  UNL1       -0.4941
      4 N         121.3893  151.4365  147.2986 N.ar    1  UNL1       -0.2593
      5 N         118.3611  155.6642  147.2562 N.4     1  UNL1        0.2308
      6 C         124.0124  153.9276  146.9081 C.3     1  UNL1        0.0704
      7 C         121.5282  153.6243  146.2098 C.3     1  UNL1        0.0224
      8 C         122.5360  154.0611  147.3151 C.3     1  UNL1       -0.0124
      9 C         124.9201  154.6073  147.9473 C.3     1  UNL1       -0.0237
     10 C         124.5906  152.5076  146.9081 C.3     1  UNL1       -0.0237
     11 C         121.9483  154.3448  144.9038 C.3     1  UNL1       -0.0181
     12 C         126.3159  154.0530  147.6695 C.3     1  UNL1       -0.0504
     13 C         126.1032  152.7135  146.9696 C.3     1  UNL1       -0.0504
     14 C         120.0639  154.0179  146.6068 C.3     1  UNL1       -0.0013
     15 C         123.4266  154.1485  144.5839 C.3     1  UNL1        0.0492
     16 C         121.4872  152.0886  146.1105 C.ar    1  UNL1        0.0478
     17 C         119.8005  155.4984  146.8658 C.3     1  UNL1       -0.0325
     18 C         121.4693  151.3889  144.9040 C.ar    1  UNL1       -0.0398
     19 C         121.4026  149.9958  144.9219 C.ar    1  UNL1       -0.0586
     20 C         121.3350  150.0846  147.2888 C.ar    1  UNL1        0.0279
     21 C         117.9816  157.0548  147.6647 C.3     1  UNL1        0.0021
     22 C         121.3405  149.3272  146.1352 C.ar    1  UNL1       -0.0436
     23 C         117.9822  158.0099  146.5225 C.ar    1  UNL1        0.0756
     24 C         118.9949  158.8567  146.1195 C.ar    1  UNL1        0.1353
     25 C         118.6247  159.6322  144.9827 C.ar    1  UNL1       -0.0124
     26 C         117.3461  159.3446  144.5554 C.ar    1  UNL1       -0.0203
     27 C         121.1235  159.8065  146.3678 C.3     1  UNL1        0.0788
     28 H         118.1460  155.0326  148.0374 H       1  UNL1        0.2017
     29 H         117.7518  155.3843  146.4772 H       1  UNL1        0.2017
     30 H         122.3740  155.1271  147.5187 H       1  UNL1        0.0302
     31 H         122.3488  153.5446  148.2646 H       1  UNL1        0.0302
     32 H         124.6189  154.3354  148.9666 H       1  UNL1        0.0293
     33 H         124.9144  155.6995  147.8658 H       1  UNL1        0.0293
     34 H         124.3347  151.9109  146.0302 H       1  UNL1        0.0293
     35 H         124.2652  151.9593  147.8007 H       1  UNL1        0.0293
     36 H         121.8008  155.4244  145.0297 H       1  UNL1        0.0296
     37 H         121.3263  154.0506  144.0519 H       1  UNL1        0.0296
     38 H         126.8883  153.9419  148.5960 H       1  UNL1        0.0266
     39 H         126.8774  154.7310  147.0165 H       1  UNL1        0.0266
     40 H         126.5239  152.7525  145.9580 H       1  UNL1        0.0266
     41 H         126.5967  151.8923  147.4989 H       1  UNL1        0.0266
     42 H         119.7726  153.4661  147.5121 H       1  UNL1        0.0326
     43 H         119.3794  153.6756  145.8169 H       1  UNL1        0.0326
     44 H         123.6733  153.1139  144.3323 H       1  UNL1        0.0560
     45 H         123.6877  154.7526  143.7084 H       1  UNL1        0.0560
     46 H         120.3931  155.8854  147.6978 H       1  UNL1        0.0814
     47 H         119.9597  156.0968  145.9671 H       1  UNL1        0.0814
     48 H         121.5128  151.8834  143.9409 H       1  UNL1        0.0636
     49 H         121.4040  149.4349  143.9903 H       1  UNL1        0.0619
     50 H         121.2861  149.6128  148.2665 H       1  UNL1        0.0829
     51 H         118.6703  157.3586  148.4606 H       1  UNL1        0.0873
     52 H         116.9840  156.9739  148.1112 H       1  UNL1        0.0873
     53 H         121.2968  148.2445  146.1792 H       1  UNL1        0.0633
     54 H         119.2445  160.3685  144.4848 H       1  UNL1        0.0659
     55 H         116.8133  159.7859  143.7221 H       1  UNL1        0.0694
     56 H         122.0053  159.7144  147.0091 H       1  UNL1        0.0660
     57 H         120.7327  160.8237  146.4771 H       1  UNL1        0.0660
     58 H         121.4378  159.6133  145.3366 H       1  UNL1        0.0660
@<TRIPOS>UNITY_ATOM_ATTR
5 1
charge 1
@<TRIPOS>BOND
     1     1    23   ar
     2     1    26   ar
     3     2     6    1
     4     2    15    1
     5     3    24    1
     6     3    27    1
     7     4    16   ar
     8     4    20   ar
     9     5    17    1
    10     5    21    1
    11     5    28    1
    12     5    29    1
    13     6     8    1
    14     6     9    1
    15     6    10    1
    16     7     8    1
    17     7    11    1
    18     7    14    1
    19     7    16    1
    20     8    30    1
    21     8    31    1
    22     9    12    1
    23     9    32    1
    24     9    33    1
    25    10    13    1
    26    10    34    1
    27    10    35    1
    28    11    15    1
    29    11    36    1
    30    11    37    1
    31    12    13    1
    32    12    38    1
    33    12    39    1
    34    13    40    1
    35    13    41    1
    36    14    17    1
    37    14    42    1
    38    14    43    1
    39    15    44    1
    40    15    45    1
    41    16    18   ar
    42    17    46    1
    43    17    47    1
    44    18    19   ar
    45    18    48    1
    46    19    22   ar
    47    19    49    1
    48    20    22   ar
    49    20    50    1
    50    21    23    1
    51    21    51    1
    52    21    52    1
    53    22    53    1
    54    23    24   ar
    55    24    25   ar
    56    25    26   ar
    57    25    54    1
    58    26    55    1
    59    27    56    1
    60    27    57    1
    61    27    58    1
@<TRIPOS>MOLECULE
66553195
 58 61 0 0 0
SMALL
GASTEIGER

@<TRIPOS>ATOM
      1 S         116.6162  157.9920  145.6254 S.2     1  UNL1       -0.0926
      2 O         124.0747  154.7842  145.7978 O.3     1  UNL1       -0.3733
      3 O         119.7140  158.6642  147.8157 O.3     1  UNL1       -0.4941
      4 N         121.4310  151.3288  147.1412 N.ar    1  UNL1       -0.2593
      5 N         118.0920  155.3201  147.2232 N.4     1  UNL1        0.2308
      6 C         123.8665  154.0173  146.9908 C.3     1  UNL1        0.0704
      7 C         121.4352  153.5821  146.1868 C.3     1  UNL1        0.0224
      8 C         122.3718  154.0235  147.3508 C.3     1  UNL1       -0.0124
      9 C         124.6901  154.6935  148.0998 C.3     1  UNL1       -0.0237
     10 C         124.5450  152.6439  146.9275 C.3     1  UNL1       -0.0237
     11 C         121.8426  154.4089  144.9406 C.3     1  UNL1       -0.0181
     12 C         126.1302  154.2574  147.8379 C.3     1  UNL1       -0.0504
     13 C         126.0363  152.9503  147.0555 C.3     1  UNL1       -0.0504
     14 C         119.9314  153.8471  146.5391 C.3     1  UNL1       -0.0013
     15 C         123.3408  154.3402  144.6640 C.3     1  UNL1        0.0492
     16 C         121.5111  152.0565  145.9962 C.ar    1  UNL1        0.0478
     17 C         119.5747  155.2578  146.9994 C.3     1  UNL1       -0.0325
     18 C         121.5767  151.4310  144.7513 C.ar    1  UNL1       -0.0398
     19 C         121.6128  150.0382  144.6867 C.ar    1  UNL1       -0.0586
     20 C         121.4774  149.9796  147.0516 C.ar    1  UNL1        0.0279
     21 C         117.6019  156.6043  147.8179 C.3     1  UNL1        0.0021
     22 C         121.5688  149.2952  145.8568 C.ar    1  UNL1       -0.0436
     23 C         117.7465  157.7598  146.8906 C.ar    1  UNL1        0.0756
     24 C         118.7245  158.7333  146.8898 C.ar    1  UNL1        0.1353
     25 C         118.5330  159.6847  145.8464 C.ar    1  UNL1       -0.0124
     26 C         117.4181  159.4009  145.0869 C.ar    1  UNL1       -0.0203
     27 C         120.5883  159.7909  147.8377 C.3     1  UNL1        0.0788
     28 H         117.8087  154.5526  147.8445 H       1  UNL1        0.2017
     29 H         117.5984  155.1752  146.3334 H       1  UNL1        0.2017
     30 H         122.1283  155.0631  147.6050 H       1  UNL1        0.0302
     31 H         122.1906  153.4418  148.2630 H       1  UNL1        0.0302
     32 H         124.3784  154.3382  149.0899 H       1  UNL1        0.0293
     33 H         124.6078  155.7856  148.0835 H       1  UNL1        0.0293
     34 H         124.3607  152.0860  146.0072 H       1  UNL1        0.0293
     35 H         124.2318  152.0204  147.7739 H       1  UNL1        0.0293
     36 H         121.6063  155.4646  145.1221 H       1  UNL1        0.0296
     37 H         121.2737  154.1210  144.0502 H       1  UNL1        0.0296
     38 H         126.6820  154.1324  148.7751 H       1  UNL1        0.0266
     39 H         126.6596  155.0111  147.2438 H       1  UNL1        0.0266
     40 H         126.4858  153.0781  146.0638 H       1  UNL1        0.0266
     41 H         126.5697  152.1353  147.5550 H       1  UNL1        0.0266
     42 H         119.6133  153.1584  147.3350 H       1  UNL1        0.0326
     43 H         119.3156  153.5914  145.6644 H       1  UNL1        0.0326
     44 H         123.6705  153.3435  144.3598 H       1  UNL1        0.0560
     45 H         123.5845  155.0147  143.8363 H       1  UNL1        0.0560
     46 H         120.0430  155.5060  147.9554 H       1  UNL1        0.0814
     47 H         119.8191  156.0078  146.2450 H       1  UNL1        0.0814
     48 H         121.6088  151.9844  143.8203 H       1  UNL1        0.0636
     49 H         121.6800  149.5356  143.7248 H       1  UNL1        0.0619
     50 H         121.4383  149.4478  147.9985 H       1  UNL1        0.0829
     51 H         118.1453  156.7520  148.7574 H       1  UNL1        0.0873
     52 H         116.5495  156.4352  148.0729 H       1  UNL1        0.0873
     53 H         121.6043  148.2114  145.8368 H       1  UNL1        0.0633
     54 H         119.1657  160.5401  145.6410 H       1  UNL1        0.0659
     55 H         117.0384  159.9567  144.2383 H       1  UNL1        0.0694
     56 H         121.1593  159.8617  146.9060 H       1  UNL1        0.0660
     57 H         121.2994  159.6451  148.6564 H       1  UNL1        0.0660
     58 H         120.0362  160.7166  148.0330 H       1  UNL1        0.0660
@<TRIPOS>UNITY_ATOM_ATTR
5 1
charge 1
@<TRIPOS>BOND
     1     1    23   ar
     2     1    26   ar
     3     2     6    1
     4     2    15    1
     5     3    24    1
     6     3    27    1
     7     4    16   ar
     8     4    20   ar
     9     5    17    1
    10     5    21    1
    11     5    28    1
    12     5    29    1
    13     6     8    1
    14     6     9    1
    15     6    10    1
    16     7     8    1
    17     7    11    1
    18     7    14    1
    19     7    16    1
    20     8    30    1
    21     8    31    1
    22     9    12    1
    23     9    32    1
    24     9    33    1
    25    10    13    1
    26    10    34    1
    27    10    35    1
    28    11    15    1
    29    11    36    1
    30    11    37    1
    31    12    13    1
    32    12    38    1
    33    12    39    1
    34    13    40    1
    35    13    41    1
    36    14    17    1
    37    14    42    1
    38    14    43    1
    39    15    44    1
    40    15    45    1
    41    16    18   ar
    42    17    46    1
    43    17    47    1
    44    18    19   ar
    45    18    48    1
    46    19    22   ar
    47    19    49    1
    48    20    22   ar
    49    20    50    1
    50    21    23    1
    51    21    51    1
    52    21    52    1
    53    22    53    1
    54    23    24   ar
    55    24    25   ar
    56    25    26   ar
    57    25    54    1
    58    26    55    1
    59    27    56    1
    60    27    57    1
    61    27    58    1
@<TRIPOS>MOLECULE
66553195
 58 61 0 0 0
SMALL
GASTEIGER

@<TRIPOS>ATOM
      1 S         115.5880  158.8115  147.9740 S.2     1  UNL1       -0.0926
      2 O         124.1105  154.7497  145.8152 O.3     1  UNL1       -0.3733
      3 O         116.1849  155.1719  149.1096 O.3     1  UNL1       -0.4941
      4 N         121.0886  151.9288  144.8165 N.ar    1  UNL1       -0.2593
      5 N         118.2521  155.8758  147.3844 N.4     1  UNL1        0.2308
      6 C         123.9038  154.0457  147.0440 C.3     1  UNL1        0.0704
      7 C         121.3992  153.8051  146.3790 C.3     1  UNL1        0.0224
      8 C         122.4319  154.1715  147.4822 C.3     1  UNL1       -0.0124
      9 C         124.8312  154.6949  148.0857 C.3     1  UNL1       -0.0237
     10 C         124.4788  152.6251  146.9986 C.3     1  UNL1       -0.0237
     11 C         121.8188  154.5797  145.0970 C.3     1  UNL1       -0.0181
     12 C         126.2209  154.1429  147.7724 C.3     1  UNL1       -0.0504
     13 C         125.9925  152.8286  147.0307 C.3     1  UNL1       -0.0504
     14 C         119.9455  154.2063  146.7952 C.3     1  UNL1       -0.0013
     15 C         123.2772  154.3300  144.7384 C.3     1  UNL1        0.0492
     16 C         121.3151  152.2917  146.1024 C.ar    1  UNL1        0.0478
     17 C         119.6958  155.6883  147.0633 C.3     1  UNL1       -0.0325
     18 C         121.3625  151.3380  147.1217 C.ar    1  UNL1       -0.0398
     19 C         121.2399  149.9868  146.8014 C.ar    1  UNL1       -0.0586
     20 C         120.9824  150.6109  144.5291 C.ar    1  UNL1        0.0279
     21 C         117.8721  157.2588  147.8027 C.3     1  UNL1        0.0021
     22 C         121.0537  149.6119  145.4793 C.ar    1  UNL1       -0.0436
     23 C         116.4422  157.3463  148.2209 C.ar    1  UNL1        0.0756
     24 C         115.6533  156.3957  148.8418 C.ar    1  UNL1        0.1353
     25 C         114.3392  156.8802  149.1091 C.ar    1  UNL1       -0.0124
     26 C         114.1720  158.1817  148.6887 C.ar    1  UNL1       -0.0203
     27 C         115.2905  154.2711  149.7649 C.3     1  UNL1        0.0788
     28 H         117.9530  155.2473  148.1475 H       1  UNL1        0.2017
     29 H         117.6637  155.6122  146.5833 H       1  UNL1        0.2017
     30 H         122.2807  155.2283  147.7386 H       1  UNL1        0.0302
     31 H         122.2558  153.6195  148.4118 H       1  UNL1        0.0302
     32 H         124.5447  154.3986  149.1025 H       1  UNL1        0.0293
     33 H         124.8287  155.7889  148.0320 H       1  UNL1        0.0293
     34 H         124.2004  152.0494  146.1132 H       1  UNL1        0.0293
     35 H         124.1753  152.0577  147.8868 H       1  UNL1        0.0293
     36 H         121.7206  155.6570  145.2763 H       1  UNL1        0.0296
     37 H         121.1718  154.3467  144.2434 H       1  UNL1        0.0296
     38 H         126.8028  153.9975  148.6882 H       1  UNL1        0.0266
     39 H         126.7792  154.8394  147.1363 H       1  UNL1        0.0266
     40 H         126.3885  152.9039  146.0112 H       1  UNL1        0.0266
     41 H         126.4989  151.9897  147.5187 H       1  UNL1        0.0266
     42 H         119.6624  153.6436  147.6965 H       1  UNL1        0.0326
     43 H         119.2484  153.8792  146.0096 H       1  UNL1        0.0326
     44 H         123.4802  153.2895  144.4709 H       1  UNL1        0.0560
     45 H         123.5448  154.9377  143.8675 H       1  UNL1        0.0560
     46 H         120.2613  156.0459  147.9276 H       1  UNL1        0.0814
     47 H         119.8986  156.3159  146.1927 H       1  UNL1        0.0814
     48 H         121.4969  151.6112  148.1619 H       1  UNL1        0.0636
     49 H         121.2937  149.2300  147.5801 H       1  UNL1        0.0619
     50 H         120.8331  150.3740  143.4790 H       1  UNL1        0.0829
     51 H         118.0925  157.9103  146.9502 H       1  UNL1        0.0873
     52 H         118.5215  157.5302  148.6424 H       1  UNL1        0.0873
     53 H         120.9642  148.5684  145.1972 H       1  UNL1        0.0633
     54 H         113.5393  156.3276  149.5875 H       1  UNL1        0.0659
     55 H         113.2826  158.7942  148.7708 H       1  UNL1        0.0694
     56 H         115.8254  153.3301  149.9248 H       1  UNL1        0.0660
     57 H         114.4182  154.0576  149.1379 H       1  UNL1        0.0660
     58 H         114.9895  154.6578  150.7442 H       1  UNL1        0.0660
@<TRIPOS>UNITY_ATOM_ATTR
5 1
charge 1
@<TRIPOS>BOND
     1     1    23   ar
     2     1    26   ar
     3     2     6    1
     4     2    15    1
     5     3    24    1
     6     3    27    1
     7     4    16   ar
     8     4    20   ar
     9     5    17    1
    10     5    21    1
    11     5    28    1
    12     5    29    1
    13     6     8    1
    14     6     9    1
    15     6    10    1
    16     7     8    1
    17     7    11    1
    18     7    14    1
    19     7    16    1
    20     8    30    1
    21     8    31    1
    22     9    12    1
    23     9    32    1
    24     9    33    1
    25    10    13    1
    26    10    34    1
    27    10    35    1
    28    11    15    1
    29    11    36    1
    30    11    37    1
    31    12    13    1
    32    12    38    1
    33    12    39    1
    34    13    40    1
    35    13    41    1
    36    14    17    1
    37    14    42    1
    38    14    43    1
    39    15    44    1
    40    15    45    1
    41    16    18   ar
    42    17    46    1
    43    17    47    1
    44    18    19   ar
    45    18    48    1
    46    19    22   ar
    47    19    49    1
    48    20    22   ar
    49    20    50    1
    50    21    23    1
    51    21    51    1
    52    21    52    1
    53    22    53    1
    54    23    24   ar
    55    24    25   ar
    56    25    26   ar
    57    25    54    1
    58    26    55    1
    59    27    56    1
    60    27    57    1
    61    27    58    1
@<TRIPOS>MOLECULE
66553195
 58 61 0 0 0
SMALL
GASTEIGER

@<TRIPOS>ATOM
      1 S         116.1718  156.3545  151.0058 S.2     1  UNL1       -0.0926
      2 O         123.8767  154.8810  145.6199 O.3     1  UNL1       -0.3733
      3 O         115.6881  153.7686  148.1902 O.3     1  UNL1       -0.4941
      4 N         121.0768  151.7380  144.9220 N.ar    1  UNL1       -0.2593
      5 N         118.1230  155.3756  147.7941 N.4     1  UNL1        0.2308
      6 C         123.8895  154.1612  146.8565 C.3     1  UNL1        0.0704
      7 C         121.3705  153.6289  146.4661 C.3     1  UNL1        0.0224
      8 C         122.4705  154.1102  147.4550 C.3     1  UNL1       -0.0124
      9 C         124.8421  154.9176  147.7985 C.3     1  UNL1       -0.0237
     10 C         124.6202  152.8187  146.7327 C.3     1  UNL1       -0.0237
     11 C         121.5554  154.4497  145.1581 C.3     1  UNL1       -0.0181
     12 C         126.2450  154.5328  147.3313 C.3     1  UNL1       -0.0504
     13 C         126.0934  153.2010  146.6013 C.3     1  UNL1       -0.0504
     14 C         119.9427  153.8578  147.0672 C.3     1  UNL1       -0.0013
     15 C         122.9832  154.3649  144.6370 C.3     1  UNL1        0.0492
     16 C         121.4271  152.1174  146.1754 C.ar    1  UNL1        0.0478
     17 C         119.4906  155.3104  147.2028 C.3     1  UNL1       -0.0325
     18 C         121.7129  151.1699  147.1602 C.ar    1  UNL1       -0.0398
     19 C         121.7025  149.8153  146.8301 C.ar    1  UNL1       -0.0586
     20 C         121.0823  150.4185  144.6233 C.ar    1  UNL1        0.0279
     21 C         118.0201  155.2116  149.2759 C.3     1  UNL1        0.0021
     22 C         121.3887  149.4289  145.5357 C.ar    1  UNL1       -0.0436
     23 C         116.6015  155.3083  149.7225 C.ar    1  UNL1        0.0756
     24 C         115.5070  154.6249  149.2301 C.ar    1  UNL1        0.1353
     25 C         114.3060  154.9703  149.9145 C.ar    1  UNL1       -0.0124
     26 C         114.5280  155.9009  150.9069 C.ar    1  UNL1       -0.0203
     27 C         114.5426  152.9760  147.8751 C.3     1  UNL1        0.0788
     28 H         117.4996  154.6721  147.3650 H       1  UNL1        0.2017
     29 H         117.6933  156.2798  147.5605 H       1  UNL1        0.2017
     30 H         122.2210  155.1386  147.7490 H       1  UNL1        0.0302
     31 H         122.4661  153.5356  148.3878 H       1  UNL1        0.0302
     32 H         124.7046  154.5919  148.8371 H       1  UNL1        0.0293
     33 H         124.7051  156.0035  147.7570 H       1  UNL1        0.0293
     34 H         124.3161  152.2125  145.8766 H       1  UNL1        0.0293
     35 H         124.4858  152.2209  147.6423 H       1  UNL1        0.0293
     36 H         121.3645  155.5097  145.3653 H       1  UNL1        0.0296
     37 H         120.8455  154.1506  144.3785 H       1  UNL1        0.0296
     38 H         126.9347  154.4562  148.1781 H       1  UNL1        0.0266
     39 H         126.6468  155.2904  146.6488 H       1  UNL1        0.0266
     40 H         126.3623  153.3238  145.5456 H       1  UNL1        0.0266
     41 H         126.7465  152.4283  147.0190 H       1  UNL1        0.0266
     42 H         119.8953  153.3671  148.0482 H       1  UNL1        0.0326
     43 H         119.2016  153.3402  146.4403 H       1  UNL1        0.0326
     44 H         123.2717  153.3532  144.3394 H       1  UNL1        0.0560
     45 H         123.0823  154.9965  143.7479 H       1  UNL1        0.0560
     46 H         120.1484  155.9153  147.8320 H       1  UNL1        0.0814
     47 H         119.3951  155.7861  146.2231 H       1  UNL1        0.0814
     48 H         121.9497  151.4499  148.1801 H       1  UNL1        0.0636
     49 H         121.9419  149.0650  147.5797 H       1  UNL1        0.0619
     50 H         120.8244  150.1724  143.5967 H       1  UNL1        0.0829
     51 H         118.6536  155.9850  149.7226 H       1  UNL1        0.0873
     52 H         118.4250  154.2270  149.5295 H       1  UNL1        0.0873
     53 H         121.3807  148.3837  145.2463 H       1  UNL1        0.0633
     54 H         113.3180  154.5753  149.7096 H       1  UNL1        0.0659
     55 H         113.7997  156.3372  151.5794 H       1  UNL1        0.0694
     56 H         114.8266  152.2832  147.0773 H       1  UNL1        0.0660
     57 H         113.7252  153.6015  147.5014 H       1  UNL1        0.0660
     58 H         114.2226  152.3820  148.7380 H       1  UNL1        0.0660
@<TRIPOS>UNITY_ATOM_ATTR
5 1
charge 1
@<TRIPOS>BOND
     1     1    23   ar
     2     1    26   ar
     3     2     6    1
     4     2    15    1
     5     3    24    1
     6     3    27    1
     7     4    16   ar
     8     4    20   ar
     9     5    17    1
    10     5    21    1
    11     5    28    1
    12     5    29    1
    13     6     8    1
    14     6     9    1
    15     6    10    1
    16     7     8    1
    17     7    11    1
    18     7    14    1
    19     7    16    1
    20     8    30    1
    21     8    31    1
    22     9    12    1
    23     9    32    1
    24     9    33    1
    25    10    13    1
    26    10    34    1
    27    10    35    1
    28    11    15    1
    29    11    36    1
    30    11    37    1
    31    12    13    1
    32    12    38    1
    33    12    39    1
    34    13    40    1
    35    13    41    1
    36    14    17    1
    37    14    42    1
    38    14    43    1
    39    15    44    1
    40    15    45    1
    41    16    18   ar
    42    17    46    1
    43    17    47    1
    44    18    19   ar
    45    18    48    1
    46    19    22   ar
    47    19    49    1
    48    20    22   ar
    49    20    50    1
    50    21    23    1
    51    21    51    1
    52    21    52    1
    53    22    53    1
    54    23    24   ar
    55    24    25   ar
    56    25    26   ar
    57    25    54    1
    58    26    55    1
    59    27    56    1
    60    27    57    1
    61    27    58    1
@<TRIPOS>MOLECULE
66553195
 58 61 0 0 0
SMALL
GASTEIGER

@<TRIPOS>ATOM
      1 S         115.9119  154.6453  150.9949 S.2     1  UNL1       -0.0926
      2 O         123.9682  154.8036  145.7347 O.3     1  UNL1       -0.3733
      3 O         116.0156  156.6898  147.7303 O.3     1  UNL1       -0.4941
      4 N         120.6539  151.6746  145.0847 N.ar    1  UNL1       -0.2593
      5 N         118.0585  153.7251  148.4527 N.4     1  UNL1        0.2308
      6 C         123.9105  154.1281  146.9923 C.3     1  UNL1        0.0704
      7 C         121.4096  153.5571  146.4445 C.3     1  UNL1        0.0224
      8 C         122.4539  154.0355  147.4960 C.3     1  UNL1       -0.0124
      9 C         124.7647  154.9526  147.9727 C.3     1  UNL1       -0.0237
     10 C         124.7102  152.8201  146.9609 C.3     1  UNL1       -0.0237
     11 C         121.6968  154.3346  145.1259 C.3     1  UNL1       -0.0181
     12 C         126.2138  154.6133  147.6219 C.3     1  UNL1       -0.0504
     13 C         126.1671  153.2731  146.8932 C.3     1  UNL1       -0.0504
     14 C         119.9670  153.9767  146.8930 C.3     1  UNL1       -0.0013
     15 C         123.1536  154.2386  144.7147 C.3     1  UNL1        0.0492
     16 C         121.3750  152.0481  146.1706 C.ar    1  UNL1        0.0478
     17 C         119.4286  153.2367  148.1147 C.3     1  UNL1       -0.0325
     18 C         121.9272  151.0895  147.0191 C.ar    1  UNL1       -0.0398
     19 C         121.8100  149.7368  146.6988 C.ar    1  UNL1       -0.0586
     20 C         120.5706  150.3586  144.7802 C.ar    1  UNL1        0.0279
     21 C         117.9770  155.0266  149.1818 C.3     1  UNL1        0.0021
     22 C         121.1297  149.3608  145.5512 C.ar    1  UNL1       -0.0436
     23 C         116.5699  155.3237  149.5663 C.ar    1  UNL1        0.0756
     24 C         115.6500  156.1042  148.8983 C.ar    1  UNL1        0.1353
     25 C         114.3965  156.1532  149.5749 C.ar    1  UNL1       -0.0124
     26 C         114.4048  155.4052  150.7330 C.ar    1  UNL1       -0.0203
     27 C         115.0733  157.6300  147.2173 C.3     1  UNL1        0.0788
     28 H         117.5867  153.0223  149.0367 H       1  UNL1        0.2017
     29 H         117.4824  153.7963  147.6020 H       1  UNL1        0.2017
     30 H         122.1628  155.0571  147.7839 H       1  UNL1        0.0302
     31 H         122.4025  153.4536  148.4229 H       1  UNL1        0.0302
     32 H         124.5646  154.6550  149.0097 H       1  UNL1        0.0293
     33 H         124.5884  156.0300  147.8839 H       1  UNL1        0.0293
     34 H         124.4813  152.1699  146.1137 H       1  UNL1        0.0293
     35 H         124.5620  152.2518  147.8865 H       1  UNL1        0.0293
     36 H         121.4656  155.3968  145.2889 H       1  UNL1        0.0296
     37 H         121.0562  154.0036  144.3003 H       1  UNL1        0.0296
     38 H         126.8328  154.5626  148.5236 H       1  UNL1        0.0266
     39 H         126.6462  155.3806  146.9698 H       1  UNL1        0.0266
     40 H         126.4761  153.4061  145.8497 H       1  UNL1        0.0266
     41 H         126.8395  152.5366  147.3441 H       1  UNL1        0.0266
     42 H         119.2657  153.8210  146.0605 H       1  UNL1        0.0326
     43 H         119.9591  155.0569  147.0861 H       1  UNL1        0.0326
     44 H         123.4589  153.2128  144.4888 H       1  UNL1        0.0560
     45 H         123.3160  154.8280  143.8063 H       1  UNL1        0.0560
     46 H         119.3095  152.1680  147.9168 H       1  UNL1        0.0814
     47 H         120.0543  153.3657  149.0027 H       1  UNL1        0.0814
     48 H         122.4578  151.3486  147.9269 H       1  UNL1        0.0636
     49 H         122.2603  148.9801  147.3373 H       1  UNL1        0.0619
     50 H         120.0256  150.1240  143.8695 H       1  UNL1        0.0829
     51 H         118.3800  155.7999  148.5209 H       1  UNL1        0.0873
     52 H         118.6263  154.9496  150.0609 H       1  UNL1        0.0873
     53 H         121.0400  148.3183  145.2650 H       1  UNL1        0.0633
     54 H         113.5186  156.6988  149.2499 H       1  UNL1        0.0659
     55 H         113.5931  155.2692  151.4369 H       1  UNL1        0.0694
     56 H         115.5076  158.0829  146.3210 H       1  UNL1        0.0660
     57 H         114.8809  158.4317  147.9387 H       1  UNL1        0.0660
     58 H         114.1429  157.1322  146.9248 H       1  UNL1        0.0660
@<TRIPOS>UNITY_ATOM_ATTR
5 1
charge 1
@<TRIPOS>BOND
     1     1    23   ar
     2     1    26   ar
     3     2     6    1
     4     2    15    1
     5     3    24    1
     6     3    27    1
     7     4    16   ar
     8     4    20   ar
     9     5    17    1
    10     5    21    1
    11     5    28    1
    12     5    29    1
    13     6     8    1
    14     6     9    1
    15     6    10    1
    16     7     8    1
    17     7    11    1
    18     7    14    1
    19     7    16    1
    20     8    30    1
    21     8    31    1
    22     9    12    1
    23     9    32    1
    24     9    33    1
    25    10    13    1
    26    10    34    1
    27    10    35    1
    28    11    15    1
    29    11    36    1
    30    11    37    1
    31    12    13    1
    32    12    38    1
    33    12    39    1
    34    13    40    1
    35    13    41    1
    36    14    17    1
    37    14    42    1
    38    14    43    1
    39    15    44    1
    40    15    45    1
    41    16    18   ar
    42    17    46    1
    43    17    47    1
    44    18    19   ar
    45    18    48    1
    46    19    22   ar
    47    19    49    1
    48    20    22   ar
    49    20    50    1
    50    21    23    1
    51    21    51    1
    52    21    52    1
    53    22    53    1
    54    23    24   ar
    55    24    25   ar
    56    25    26   ar
    57    25    54    1
    58    26    55    1
    59    27    56    1
    60    27    57    1
    61    27    58    1
@<TRIPOS>MOLECULE
66553195
 58 61 0 0 0
SMALL
GASTEIGER

@<TRIPOS>ATOM
      1 S         118.0172  148.6449  147.9306 S.2     1  UNL1       -0.0926
      2 O         123.9127  154.9823  145.6159 O.3     1  UNL1       -0.3733
      3 O         119.7332  149.7289  151.2053 O.3     1  UNL1       -0.4941
      4 N         120.4008  151.4304  145.5307 N.ar    1  UNL1       -0.2593
      5 N         119.4733  151.7626  148.1536 N.4     1  UNL1        0.2308
      6 C         124.0274  154.3258  146.8761 C.3     1  UNL1        0.0704
      7 C         121.5714  153.4061  146.3981 C.3     1  UNL1        0.0224
      8 C         122.6455  153.8899  147.4233 C.3     1  UNL1       -0.0124
      9 C         124.6764  155.3362  147.8448 C.3     1  UNL1       -0.0237
     10 C         125.1262  153.2554  146.8336 C.3     1  UNL1       -0.0237
     11 C         121.7499  154.1583  145.0504 C.3     1  UNL1       -0.0181
     12 C         126.1545  155.3702  147.4629 C.3     1  UNL1       -0.0504
     13 C         126.4344  154.0427  146.7680 C.3     1  UNL1       -0.0504
     14 C         120.1477  153.8293  146.9335 C.3     1  UNL1       -0.0013
     15 C         123.2006  154.2520  144.6277 C.3     1  UNL1        0.0492
     16 C         121.5514  151.8968  146.0983 C.ar    1  UNL1        0.0478
     17 C         119.6601  153.2278  148.2521 C.3     1  UNL1       -0.0325
     18 C         122.5781  151.0161  146.4128 C.ar    1  UNL1       -0.0398
     19 C         122.4705  149.6701  146.0569 C.ar    1  UNL1       -0.0586
     20 C         120.3426  150.1326  145.1388 C.ar    1  UNL1        0.0279
     21 C         118.4087  151.1767  149.0094 C.3     1  UNL1        0.0021
     22 C         121.3428  149.2199  145.3892 C.ar    1  UNL1       -0.0436
     23 C         118.5896  149.7050  149.1461 C.ar    1  UNL1        0.0756
     24 C         119.2060  149.0218  150.1739 C.ar    1  UNL1        0.1353
     25 C         119.2072  147.6135  149.9584 C.ar    1  UNL1       -0.0124
     26 C         118.5889  147.2731  148.7740 C.ar    1  UNL1       -0.0203
     27 C         120.1043  148.9424  152.3356 C.3     1  UNL1        0.0788
     28 H         120.3534  151.2815  148.3753 H       1  UNL1        0.2017
     29 H         119.2987  151.4951  147.1657 H       1  UNL1        0.2017
     30 H         122.2286  154.7897  147.8999 H       1  UNL1        0.0302
     31 H         122.7647  153.1714  148.2440 H       1  UNL1        0.0302
     32 H         124.5793  154.9959  148.8836 H       1  UNL1        0.0293
     33 H         124.2360  156.3362  147.7675 H       1  UNL1        0.0293
     34 H         125.0652  152.5835  145.9744 H       1  UNL1        0.0293
     35 H         125.1193  152.6549  147.7513 H       1  UNL1        0.0293
     36 H         121.3791  155.1864  145.1648 H       1  UNL1        0.0296
     37 H         121.1585  153.6998  144.2484 H       1  UNL1        0.0296
     38 H         126.7865  155.5084  148.3461 H       1  UNL1        0.0266
     39 H         126.3591  156.2021  146.7795 H       1  UNL1        0.0266
     40 H         126.7199  154.2219  145.7247 H       1  UNL1        0.0266
     41 H         127.2547  153.4955  147.2432 H       1  UNL1        0.0266
     42 H         119.3856  153.6406  146.1636 H       1  UNL1        0.0326
     43 H         120.1401  154.9208  147.0667 H       1  UNL1        0.0326
     44 H         123.6511  153.2711  144.4512 H       1  UNL1        0.0560
     45 H         123.2734  154.8142  143.6909 H       1  UNL1        0.0560
     46 H         120.3504  153.4149  149.0800 H       1  UNL1        0.0814
     47 H         118.6874  153.6659  148.5024 H       1  UNL1        0.0814
     48 H         123.4777  151.3261  146.9217 H       1  UNL1        0.0636
     49 H         123.2840  148.9807  146.2754 H       1  UNL1        0.0619
     50 H         119.4385  149.8402  144.6094 H       1  UNL1        0.0829
     51 H         117.4474  151.4370  148.5534 H       1  UNL1        0.0873
     52 H         118.4698  151.6690  149.9863 H       1  UNL1        0.0873
     53 H         121.2530  148.1877  145.0668 H       1  UNL1        0.0633
     54 H         119.6339  146.8693  150.6199 H       1  UNL1        0.0659
     55 H         118.4459  146.2803  148.3660 H       1  UNL1        0.0694
     56 H         119.2554  148.3604  152.7108 H       1  UNL1        0.0660
     57 H         120.4177  149.6271  153.1296 H       1  UNL1        0.0660
     58 H         120.9529  148.2927  152.0981 H       1  UNL1        0.0660
@<TRIPOS>UNITY_ATOM_ATTR
5 1
charge 1
@<TRIPOS>BOND
     1     1    23   ar
     2     1    26   ar
     3     2     6    1
     4     2    15    1
     5     3    24    1
     6     3    27    1
     7     4    16   ar
     8     4    20   ar
     9     5    17    1
    10     5    21    1
    11     5    28    1
    12     5    29    1
    13     6     8    1
    14     6     9    1
    15     6    10    1
    16     7     8    1
    17     7    11    1
    18     7    14    1
    19     7    16    1
    20     8    30    1
    21     8    31    1
    22     9    12    1
    23     9    32    1
    24     9    33    1
    25    10    13    1
    26    10    34    1
    27    10    35    1
    28    11    15    1
    29    11    36    1
    30    11    37    1
    31    12    13    1
    32    12    38    1
    33    12    39    1
    34    13    40    1
    35    13    41    1
    36    14    17    1
    37    14    42    1
    38    14    43    1
    39    15    44    1
    40    15    45    1
    41    16    18   ar
    42    17    46    1
    43    17    47    1
    44    18    19   ar
    45    18    48    1
    46    19    22   ar
    47    19    49    1
    48    20    22   ar
    49    20    50    1
    50    21    23    1
    51    21    51    1
    52    21    52    1
    53    22    53    1
    54    23    24   ar
    55    24    25   ar
    56    25    26   ar
    57    25    54    1
    58    26    55    1
    59    27    56    1
    60    27    57    1
    61    27    58    1
@<TRIPOS>MOLECULE
66553195
 58 61 0 0 0
SMALL
GASTEIGER

@<TRIPOS>ATOM
      1 S         120.4587  148.3731  148.6993 S.2     1  UNL1       -0.0926
      2 O         123.7391  155.1324  145.6693 O.3     1  UNL1       -0.3733
      3 O         117.3229  148.8471  150.8823 O.3     1  UNL1       -0.4941
      4 N         120.4328  151.3714  145.7190 N.ar    1  UNL1       -0.2593
      5 N         119.8170  151.4063  148.5020 N.4     1  UNL1        0.2308
      6 C         124.0766  154.3668  146.8228 C.3     1  UNL1        0.0704
      7 C         121.6285  153.3242  146.5994 C.3     1  UNL1        0.0224
      8 C         122.8220  153.7677  147.5048 C.3     1  UNL1       -0.0124
      9 C         124.7892  155.3255  147.7997 C.3     1  UNL1       -0.0237
     10 C         125.2253  153.3964  146.5163 C.3     1  UNL1       -0.0237
     11 C         121.5639  154.2194  145.3317 C.3     1  UNL1       -0.0181
     12 C         126.1901  155.5182  147.2259 C.3     1  UNL1       -0.0504
     13 C         126.4632  154.2823  146.3769 C.3     1  UNL1       -0.0504
     14 C         120.2871  153.5927  147.3855 C.3     1  UNL1       -0.0013
     15 C         122.9299  154.4528  144.7202 C.3     1  UNL1        0.0492
     16 C         121.6355  151.8575  146.1386 C.ar    1  UNL1        0.0478
     17 C         120.0737  152.8521  148.7056 C.3     1  UNL1       -0.0325
     18 C         122.7545  151.0347  146.1521 C.ar    1  UNL1       -0.0398
     19 C         122.6672  149.7379  145.6429 C.ar    1  UNL1       -0.0586
     20 C         120.3813  150.1270  145.1831 C.ar    1  UNL1        0.0279
     21 C         119.2539  150.6985  149.6855 C.3     1  UNL1        0.0021
     22 C         121.4655  149.2789  145.1278 C.ar    1  UNL1       -0.0436
     23 C         119.2313  149.2126  149.5517 C.ar    1  UNL1        0.0756
     24 C         118.3289  148.3399  150.1260 C.ar    1  UNL1        0.1353
     25 C         118.6176  146.9797  149.8135 C.ar    1  UNL1       -0.0124
     26 C         119.7487  146.8581  149.0357 C.ar    1  UNL1       -0.0203
     27 C         116.5636  147.8737  151.5950 C.3     1  UNL1        0.0788
     28 H         120.6779  150.9189  148.2226 H       1  UNL1        0.2017
     29 H         119.2086  151.2667  147.6787 H       1  UNL1        0.2017
     30 H         122.4339  154.5732  148.1460 H       1  UNL1        0.0302
     31 H         123.1081  152.9711  148.2032 H       1  UNL1        0.0302
     32 H         124.8660  154.8768  148.7983 H       1  UNL1        0.0293
     33 H         124.2760  156.2887  147.8934 H       1  UNL1        0.0293
     34 H         125.0907  152.8189  145.5988 H       1  UNL1        0.0293
     35 H         125.3790  152.7007  147.3503 H       1  UNL1        0.0293
     36 H         121.1609  155.2031  145.6095 H       1  UNL1        0.0296
     37 H         120.8851  153.8046  144.5764 H       1  UNL1        0.0296
     38 H         126.9309  155.6374  148.0231 H       1  UNL1        0.0266
     39 H         126.2317  156.4183  146.6020 H       1  UNL1        0.0266
     40 H         126.6085  154.5743  145.3303 H       1  UNL1        0.0266
     41 H         127.3674  153.7561  146.6990 H       1  UNL1        0.0266
     42 H         119.4190  153.4186  146.7340 H       1  UNL1        0.0326
     43 H         120.2427  154.6658  147.6226 H       1  UNL1        0.0326
     44 H         123.4028  153.5269  144.3805 H       1  UNL1        0.0560
     45 H         122.8334  155.1058  143.8467 H       1  UNL1        0.0560
     46 H         120.9277  152.9441  149.3827 H       1  UNL1        0.0814
     47 H         119.1875  153.2628  149.2024 H       1  UNL1        0.0814
     48 H         123.7114  151.3578  146.5317 H       1  UNL1        0.0636
     49 H         123.5472  149.0977  145.6241 H       1  UNL1        0.0619
     50 H         119.4146  149.8235  144.7882 H       1  UNL1        0.0829
     51 H         118.2442  151.0985  149.8280 H       1  UNL1        0.0873
     52 H         119.8690  150.9765  150.5490 H       1  UNL1        0.0873
     53 H         121.3808  148.2883  144.6932 H       1  UNL1        0.0633
     54 H         118.0462  146.1182  150.1373 H       1  UNL1        0.0659
     55 H         120.1968  145.9457  148.6626 H       1  UNL1        0.0694
     56 H         115.8365  148.4062  152.2155 H       1  UNL1        0.0660
     57 H         117.2027  147.2833  152.2609 H       1  UNL1        0.0660
     58 H         116.0091  147.2274  150.9069 H       1  UNL1        0.0660
@<TRIPOS>UNITY_ATOM_ATTR
5 1
charge 1
@<TRIPOS>BOND
     1     1    23   ar
     2     1    26   ar
     3     2     6    1
     4     2    15    1
     5     3    24    1
     6     3    27    1
     7     4    16   ar
     8     4    20   ar
     9     5    17    1
    10     5    21    1
    11     5    28    1
    12     5    29    1
    13     6     8    1
    14     6     9    1
    15     6    10    1
    16     7     8    1
    17     7    11    1
    18     7    14    1
    19     7    16    1
    20     8    30    1
    21     8    31    1
    22     9    12    1
    23     9    32    1
    24     9    33    1
    25    10    13    1
    26    10    34    1
    27    10    35    1
    28    11    15    1
    29    11    36    1
    30    11    37    1
    31    12    13    1
    32    12    38    1
    33    12    39    1
    34    13    40    1
    35    13    41    1
    36    14    17    1
    37    14    42    1
    38    14    43    1
    39    15    44    1
    40    15    45    1
    41    16    18   ar
    42    17    46    1
    43    17    47    1
    44    18    19   ar
    45    18    48    1
    46    19    22   ar
    47    19    49    1
    48    20    22   ar
    49    20    50    1
    50    21    23    1
    51    21    51    1
    52    21    52    1
    53    22    53    1
    54    23    24   ar
    55    24    25   ar
    56    25    26   ar
    57    25    54    1
    58    26    55    1
    59    27    56    1
    60    27    57    1
    61    27    58    1
@<TRIPOS>MOLECULE
66553195
 58 61 0 0 0
SMALL
GASTEIGER

@<TRIPOS>ATOM
      1 S         115.4258  156.6638  148.4261 S.2     1  UNL1       -0.0926
      2 O         124.0315  154.8147  145.8543 O.3     1  UNL1       -0.3733
      3 O         114.5505  154.4448  145.4024 O.3     1  UNL1       -0.4941
      4 N         121.1930  151.8239  144.8184 N.ar    1  UNL1       -0.2593
      5 N         118.1395  155.5679  147.5402 N.4     1  UNL1        0.2308
      6 C         123.8784  154.0776  147.0714 C.3     1  UNL1        0.0704
      7 C         121.3901  153.6867  146.4142 C.3     1  UNL1        0.0224
      8 C         122.4041  154.0985  147.5192 C.3     1  UNL1       -0.0124
      9 C         124.7676  154.7675  148.1203 C.3     1  UNL1       -0.0237
     10 C         124.5442  152.6984  146.9980 C.3     1  UNL1       -0.0237
     11 C         121.7507  154.5107  145.1455 C.3     1  UNL1       -0.0181
     12 C         126.1884  154.3119  147.7921 C.3     1  UNL1       -0.0504
     13 C         126.0418  152.9990  147.0276 C.3     1  UNL1       -0.0504
     14 C         119.9163  153.9824  146.8522 C.3     1  UNL1       -0.0013
     15 C         123.2199  154.3612  144.7745 C.3     1  UNL1        0.0492
     16 C         121.4034  152.1764  146.1101 C.ar    1  UNL1        0.0478
     17 C         119.5492  155.4505  147.0583 C.3     1  UNL1       -0.0325
     18 C         121.5166  151.2091  147.1111 C.ar    1  UNL1       -0.0398
     19 C         121.4786  149.8591  146.7659 C.ar    1  UNL1       -0.0586
     20 C         121.1699  150.5074  144.5067 C.ar    1  UNL1        0.0279
     21 C         117.0699  155.4625  146.4962 C.3     1  UNL1        0.0021
     22 C         121.3099  149.4976  145.4377 C.ar    1  UNL1       -0.0436
     23 C         115.6961  155.6862  147.0422 C.ar    1  UNL1        0.0756
     24 C         114.5090  155.2104  146.5217 C.ar    1  UNL1        0.1353
     25 C         113.3790  155.6206  147.2874 C.ar    1  UNL1       -0.0124
     26 C         113.7392  156.4125  148.3561 C.ar    1  UNL1       -0.0203
     27 C         113.2751  154.0992  144.8673 C.3     1  UNL1        0.0788
     28 H         118.0131  156.4858  147.9876 H       1  UNL1        0.2017
     29 H         117.9384  154.8805  148.2778 H       1  UNL1        0.2017
     30 H         122.1848  155.1373  147.7990 H       1  UNL1        0.0302
     31 H         122.2710  153.5176  148.4383 H       1  UNL1        0.0302
     32 H         124.5061  154.4361  149.1330 H       1  UNL1        0.0293
     33 H         124.6943  155.8598  148.0856 H       1  UNL1        0.0293
     34 H         124.2991  152.1217  146.1034 H       1  UNL1        0.0293
     35 H         124.2830  152.0967  147.8770 H       1  UNL1        0.0293
     36 H         121.5865  155.5761  145.3473 H       1  UNL1        0.0296
     37 H         121.1138  154.2536  144.2913 H       1  UNL1        0.0296
     38 H         126.7827  154.1879  148.7031 H       1  UNL1        0.0266
     39 H         126.6979  155.0541  147.1669 H       1  UNL1        0.0266
     40 H         126.4267  153.1181  146.0081 H       1  UNL1        0.0266
     41 H         126.6039  152.1862  147.4982 H       1  UNL1        0.0266
     42 H         119.7050  153.4361  147.7824 H       1  UNL1        0.0326
     43 H         119.2367  153.5617  146.0983 H       1  UNL1        0.0326
     44 H         123.4876  153.3409  144.4872 H       1  UNL1        0.0560
     45 H         123.4424  155.0002  143.9134 H       1  UNL1        0.0560
     46 H         120.1599  155.9089  147.8399 H       1  UNL1        0.0814
     47 H         119.6256  156.0496  146.1473 H       1  UNL1        0.0814
     48 H         121.6386  151.4709  148.1559 H       1  UNL1        0.0636
     49 H         121.5842  149.0930  147.5301 H       1  UNL1        0.0619
     50 H         121.0307  150.2808  143.4530 H       1  UNL1        0.0829
     51 H         117.1527  154.4623  146.0605 H       1  UNL1        0.0873
     52 H         117.2935  156.2113  145.7286 H       1  UNL1        0.0873
     53 H         121.2855  148.4559  145.1366 H       1  UNL1        0.0633
     54 H         112.3460  155.3660  147.0830 H       1  UNL1        0.0659
     55 H         113.0852  156.8618  149.0932 H       1  UNL1        0.0694
     56 H         113.4416  153.5262  143.9502 H       1  UNL1        0.0660
     57 H         112.7014  154.9944  144.6033 H       1  UNL1        0.0660
     58 H         112.7161  153.4647  145.5630 H       1  UNL1        0.0660
@<TRIPOS>UNITY_ATOM_ATTR
5 1
charge 1
@<TRIPOS>BOND
     1     1    23   ar
     2     1    26   ar
     3     2     6    1
     4     2    15    1
     5     3    24    1
     6     3    27    1
     7     4    16   ar
     8     4    20   ar
     9     5    17    1
    10     5    21    1
    11     5    28    1
    12     5    29    1
    13     6     8    1
    14     6     9    1
    15     6    10    1
    16     7     8    1
    17     7    11    1
    18     7    14    1
    19     7    16    1
    20     8    30    1
    21     8    31    1
    22     9    12    1
    23     9    32    1
    24     9    33    1
    25    10    13    1
    26    10    34    1
    27    10    35    1
    28    11    15    1
    29    11    36    1
    30    11    37    1
    31    12    13    1
    32    12    38    1
    33    12    39    1
    34    13    40    1
    35    13    41    1
    36    14    17    1
    37    14    42    1
    38    14    43    1
    39    15    44    1
    40    15    45    1
    41    16    18   ar
    42    17    46    1
    43    17    47    1
    44    18    19   ar
    45    18    48    1
    46    19    22   ar
    47    19    49    1
    48    20    22   ar
    49    20    50    1
    50    21    23    1
    51    21    51    1
    52    21    52    1
    53    22    53    1
    54    23    24   ar
    55    24    25   ar
    56    25    26   ar
    57    25    54    1
    58    26    55    1
    59    27    56    1
    60    27    57    1
    61    27    58    1
@<TRIPOS>MOLECULE
66553195
 58 61 0 0 0
SMALL
GASTEIGER

@<TRIPOS>ATOM
      1 S         116.0780  158.7188  149.2604 S.2     1  UNL1       -0.0926
      2 O         124.0590  154.7810  145.6269 O.3     1  UNL1       -0.3733
      3 O         115.6593  155.1865  147.7675 O.3     1  UNL1       -0.4941
      4 N         121.0150  151.8512  145.0617 N.ar    1  UNL1       -0.2593
      5 N         118.3921  155.8287  147.7879 N.4     1  UNL1        0.2308
      6 C         124.0080  154.1226  146.8965 C.3     1  UNL1        0.0704
      7 C         121.4546  153.7846  146.5152 C.3     1  UNL1        0.0224
      8 C         122.5886  154.2199  147.4870 C.3     1  UNL1       -0.0124
      9 C         125.0184  154.8398  147.8083 C.3     1  UNL1       -0.0237
     10 C         124.6218  152.7184  146.8418 C.3     1  UNL1       -0.0237
     11 C         121.7107  154.5221  145.1701 C.3     1  UNL1       -0.0181
     12 C         126.3849  154.3144  147.3716 C.3     1  UNL1       -0.0504
     13 C         126.1227  152.9672  146.7037 C.3     1  UNL1       -0.0504
     14 C         120.0534  154.1637  147.0997 C.3     1  UNL1       -0.0013
     15 C         123.1283  154.2944  144.6637 C.3     1  UNL1        0.0492
     16 C         121.3843  152.2616  146.2999 C.ar    1  UNL1        0.0478
     17 C         119.7007  155.6488  147.0988 C.3     1  UNL1       -0.0325
     18 C         121.5772  151.3440  147.3343 C.ar    1  UNL1       -0.0398
     19 C         121.4528  149.9805  147.0711 C.ar    1  UNL1       -0.0586
     20 C         120.9095  150.5228  144.8285 C.ar    1  UNL1        0.0279
     21 C         117.8366  157.2151  147.7376 C.3     1  UNL1        0.0021
     22 C         121.1199  149.5577  145.7928 C.ar    1  UNL1       -0.0436
     23 C         116.5018  157.3001  148.3986 C.ar    1  UNL1        0.0756
     24 C         115.4760  156.3736  148.4063 C.ar    1  UNL1        0.1353
     25 C         114.3396  156.8367  149.1316 C.ar    1  UNL1       -0.0124
     26 C         114.5346  158.1002  149.6463 C.ar    1  UNL1       -0.0203
     27 C         114.5152  154.3312  147.7724 C.3     1  UNL1        0.0788
     28 H         118.4490  155.5430  148.7730 H       1  UNL1        0.2017
     29 H         117.6708  155.2145  147.3746 H       1  UNL1        0.2017
     30 H         122.4240  155.2783  147.7305 H       1  UNL1        0.0302
     31 H         122.5341  153.6928  148.4458 H       1  UNL1        0.0302
     32 H         124.8496  154.5780  148.8603 H       1  UNL1        0.0293
     33 H         124.9750  155.9301  147.7136 H       1  UNL1        0.0293
     34 H         124.2700  152.1000  146.0132 H       1  UNL1        0.0293
     35 H         124.4336  152.1783  147.7777 H       1  UNL1        0.0293
     36 H         121.6068  155.6033  145.3243 H       1  UNL1        0.0296
     37 H         120.9809  154.2446  144.4010 H       1  UNL1        0.0296
     38 H         127.0616  154.2191  148.2270 H       1  UNL1        0.0266
     39 H         126.8536  155.0014  146.6578 H       1  UNL1        0.0266
     40 H         126.4048  153.0165  145.6454 H       1  UNL1        0.0266
     41 H         126.7059  152.1624  147.1621 H       1  UNL1        0.0266
     42 H         119.9788  153.7759  148.1257 H       1  UNL1        0.0326
     43 H         119.2698  153.6432  146.5291 H       1  UNL1        0.0326
     44 H         123.3325  153.2493  144.4163 H       1  UNL1        0.0560
     45 H         123.2822  154.8723  143.7463 H       1  UNL1        0.0560
     46 H         120.4296  156.2553  147.6418 H       1  UNL1        0.0814
     47 H         119.5724  156.0312  146.0821 H       1  UNL1        0.0814
     48 H         121.8266  151.6542  148.3424 H       1  UNL1        0.0636
     49 H         121.6187  149.2511  147.8601 H       1  UNL1        0.0619
     50 H         120.6416  150.2484  143.8116 H       1  UNL1        0.0829
     51 H         117.7494  157.4887  146.6804 H       1  UNL1        0.0873
     52 H         118.5775  157.8627  148.2185 H       1  UNL1        0.0873
     53 H         121.0243  148.5039  145.5552 H       1  UNL1        0.0633
     54 H         113.4132  156.2951  149.2818 H       1  UNL1        0.0659
     55 H         113.8398  158.6908  150.2306 H       1  UNL1        0.0694
     56 H         114.7747  153.4264  147.2145 H       1  UNL1        0.0660
     57 H         113.6659  154.8052  147.2692 H       1  UNL1        0.0660
     58 H         114.2539  154.0317  148.7929 H       1  UNL1        0.0660
@<TRIPOS>UNITY_ATOM_ATTR
5 1
charge 1
@<TRIPOS>BOND
     1     1    23   ar
     2     1    26   ar
     3     2     6    1
     4     2    15    1
     5     3    24    1
     6     3    27    1
     7     4    16   ar
     8     4    20   ar
     9     5    17    1
    10     5    21    1
    11     5    28    1
    12     5    29    1
    13     6     8    1
    14     6     9    1
    15     6    10    1
    16     7     8    1
    17     7    11    1
    18     7    14    1
    19     7    16    1
    20     8    30    1
    21     8    31    1
    22     9    12    1
    23     9    32    1
    24     9    33    1
    25    10    13    1
    26    10    34    1
    27    10    35    1
    28    11    15    1
    29    11    36    1
    30    11    37    1
    31    12    13    1
    32    12    38    1
    33    12    39    1
    34    13    40    1
    35    13    41    1
    36    14    17    1
    37    14    42    1
    38    14    43    1
    39    15    44    1
    40    15    45    1
    41    16    18   ar
    42    17    46    1
    43    17    47    1
    44    18    19   ar
    45    18    48    1
    46    19    22   ar
    47    19    49    1
    48    20    22   ar
    49    20    50    1
    50    21    23    1
    51    21    51    1
    52    21    52    1
    53    22    53    1
    54    23    24   ar
    55    24    25   ar
    56    25    26   ar
    57    25    54    1
    58    26    55    1
    59    27    56    1
    60    27    57    1
    61    27    58    1
@<TRIPOS>MOLECULE
66553195
 58 61 0 0 0
SMALL
GASTEIGER

@<TRIPOS>ATOM
      1 S         115.8841  154.3700  151.5548 S.2     1  UNL1       -0.0926
      2 O         123.8834  154.8900  145.6139 O.3     1  UNL1       -0.3733
      3 O         116.0176  151.3017  149.2329 O.3     1  UNL1       -0.4941
      4 N         120.6316  151.6056  145.4053 N.ar    1  UNL1       -0.2593
      5 N         118.4087  153.4667  148.9885 N.4     1  UNL1        0.2308
      6 C         124.0159  154.2264  146.8719 C.3     1  UNL1        0.0704
      7 C         121.4972  153.5280  146.6386 C.3     1  UNL1        0.0224
      8 C         122.6394  154.0609  147.5513 C.3     1  UNL1       -0.0124
      9 C         124.9366  155.1054  147.7385 C.3     1  UNL1       -0.0237
     10 C         124.8759  152.9629  146.7484 C.3     1  UNL1       -0.0237
     11 C         121.5795  154.3051  145.2924 C.3     1  UNL1       -0.0181
     12 C         126.3498  154.8385  147.2191 C.3     1  UNL1       -0.0504
     13 C         126.2875  153.4918  146.5041 C.3     1  UNL1       -0.0504
     14 C         120.1018  153.8704  147.2636 C.3     1  UNL1       -0.0013
     15 C         122.9781  154.2748  144.7052 C.3     1  UNL1        0.0492
     16 C         121.4916  152.0159  146.3713 C.ar    1  UNL1        0.0478
     17 C         119.8372  153.2404  148.6276 C.3     1  UNL1       -0.0325
     18 C         122.2086  151.0862  147.1217 C.ar    1  UNL1       -0.0398
     19 C         122.1012  149.7280  146.8199 C.ar    1  UNL1       -0.0586
     20 C         120.5575  150.2864  145.1149 C.ar    1  UNL1        0.0279
     21 C         118.0487  153.0764  150.3836 C.3     1  UNL1        0.0021
     22 C         121.2691  149.3172  145.7900 C.ar    1  UNL1       -0.0436
     23 C         116.5761  153.1453  150.5836 C.ar    1  UNL1        0.0756
     24 C         115.6181  152.3045  150.0565 C.ar    1  UNL1        0.1353
     25 C         114.3024  152.6653  150.4655 C.ar    1  UNL1       -0.0124
     26 C         114.3055  153.7719  151.2884 C.ar    1  UNL1       -0.0203
     27 C         115.0040  150.3411  148.9393 C.3     1  UNL1        0.0788
     28 H         117.8106  152.9115  148.3570 H       1  UNL1        0.2017
     29 H         118.1333  154.4463  148.8449 H       1  UNL1        0.2017
     30 H         122.3333  155.0670  147.8765 H       1  UNL1        0.0302
     31 H         122.7339  153.4784  148.4747 H       1  UNL1        0.0302
     32 H         124.8779  154.8097  148.7935 H       1  UNL1        0.0293
     33 H         124.6940  156.1711  147.6663 H       1  UNL1        0.0293
     34 H         124.5819  152.2932  145.9372 H       1  UNL1        0.0293
     35 H         124.8716  152.3968  147.6871 H       1  UNL1        0.0293
     36 H         121.3199  155.3569  145.4784 H       1  UNL1        0.0296
     37 H         120.8587  153.9361  144.5537 H       1  UNL1        0.0296
     38 H         127.0724  154.8269  148.0416 H       1  UNL1        0.0266
     39 H         126.6619  155.6218  146.5193 H       1  UNL1        0.0266
     40 H         126.4608  153.6322  145.4306 H       1  UNL1        0.0266
     41 H         127.0479  152.7958  146.8719 H       1  UNL1        0.0266
     42 H         119.3040  153.5720  146.5685 H       1  UNL1        0.0326
     43 H         120.0073  154.9606  147.3661 H       1  UNL1        0.0326
     44 H         123.3034  153.2622  144.4494 H       1  UNL1        0.0560
     45 H         122.9987  154.8608  143.7805 H       1  UNL1        0.0560
     46 H         119.9881  152.1583  148.6383 H       1  UNL1        0.0814
     47 H         120.4486  153.7090  149.4050 H       1  UNL1        0.0814
     48 H         122.8592  151.3718  147.9385 H       1  UNL1        0.0636
     49 H         122.6761  148.9941  147.3801 H       1  UNL1        0.0619
     50 H         119.8897  150.0253  144.2980 H       1  UNL1        0.0829
     51 H         118.5990  153.7459  151.0533 H       1  UNL1        0.0873
     52 H         118.4087  152.0530  150.5388 H       1  UNL1        0.0873
     53 H         121.1803  148.2705  145.5198 H       1  UNL1        0.0633
     54 H         113.3859  152.1615  150.1829 H       1  UNL1        0.0659
     55 H         113.4522  154.2596  151.7433 H       1  UNL1        0.0694
     56 H         114.2047  150.7872  148.3386 H       1  UNL1        0.0660
     57 H         114.6052  149.8929  149.8559 H       1  UNL1        0.0660
     58 H         115.4631  149.5430  148.3481 H       1  UNL1        0.0660
@<TRIPOS>UNITY_ATOM_ATTR
5 1
charge 1
@<TRIPOS>BOND
     1     1    23   ar
     2     1    26   ar
     3     2     6    1
     4     2    15    1
     5     3    24    1
     6     3    27    1
     7     4    16   ar
     8     4    20   ar
     9     5    17    1
    10     5    21    1
    11     5    28    1
    12     5    29    1
    13     6     8    1
    14     6     9    1
    15     6    10    1
    16     7     8    1
    17     7    11    1
    18     7    14    1
    19     7    16    1
    20     8    30    1
    21     8    31    1
    22     9    12    1
    23     9    32    1
    24     9    33    1
    25    10    13    1
    26    10    34    1
    27    10    35    1
    28    11    15    1
    29    11    36    1
    30    11    37    1
    31    12    13    1
    32    12    38    1
    33    12    39    1
    34    13    40    1
    35    13    41    1
    36    14    17    1
    37    14    42    1
    38    14    43    1
    39    15    44    1
    40    15    45    1
    41    16    18   ar
    42    17    46    1
    43    17    47    1
    44    18    19   ar
    45    18    48    1
    46    19    22   ar
    47    19    49    1
    48    20    22   ar
    49    20    50    1
    50    21    23    1
    51    21    51    1
    52    21    52    1
    53    22    53    1
    54    23    24   ar
    55    24    25   ar
    56    25    26   ar
    57    25    54    1
    58    26    55    1
    59    27    56    1
    60    27    57    1
    61    27    58    1
@<TRIPOS>MOLECULE
66553195
 58 61 0 0 0
SMALL
GASTEIGER

@<TRIPOS>ATOM
      1 S         116.4796  150.3548  149.3438 S.2     1  UNL1       -0.0926
      2 O         123.9175  155.0292  145.6721 O.3     1  UNL1       -0.3733
      3 O         120.0335  150.9501  150.7118 O.3     1  UNL1       -0.4941
      4 N         120.7180  151.7857  144.9404 N.ar    1  UNL1       -0.2593
      5 N         118.2507  153.3086  148.5704 N.4     1  UNL1        0.2308
      6 C         123.9693  154.2506  146.8687 C.3     1  UNL1        0.0704
      7 C         121.4745  153.5850  146.4096 C.3     1  UNL1        0.0224
      8 C         122.5527  154.0300  147.4400 C.3     1  UNL1       -0.0124
      9 C         124.8320  155.0398  147.8706 C.3     1  UNL1       -0.0237
     10 C         124.8347  152.9984  146.6839 C.3     1  UNL1       -0.0237
     11 C         121.6383  154.4867  145.1522 C.3     1  UNL1       -0.0181
     12 C         126.2753  154.8143  147.4196 C.3     1  UNL1       -0.0504
     13 C         126.2598  153.5380  146.5832 C.3     1  UNL1       -0.0504
     14 C         120.0404  153.8674  146.9765 C.3     1  UNL1       -0.0013
     15 C         123.0715  154.5072  144.6542 C.3     1  UNL1        0.0492
     16 C         121.4983  152.1042  146.0034 C.ar    1  UNL1        0.0478
     17 C         119.6838  153.0562  148.2181 C.3     1  UNL1       -0.0325
     18 C         122.1509  151.1073  146.7273 C.ar    1  UNL1       -0.0398
     19 C         122.0626  149.7802  146.3061 C.ar    1  UNL1       -0.0586
     20 C         120.6615  150.4955  144.5370 C.ar    1  UNL1        0.0279
     21 C         117.8201  152.7247  149.8811 C.3     1  UNL1        0.0021
     22 C         121.3126  149.4657  145.1836 C.ar    1  UNL1       -0.0436
     23 C         117.8424  151.2353  149.8908 C.ar    1  UNL1        0.0756
     24 C         118.8666  150.3991  150.2887 C.ar    1  UNL1        0.1353
     25 C         118.5169  149.0237  150.1589 C.ar    1  UNL1       -0.0124
     26 C         117.2420  148.8598  149.6609 C.ar    1  UNL1       -0.0203
     27 C         121.0036  150.0107  151.1694 C.3     1  UNL1        0.0788
     28 H         117.6522  152.9108  147.8338 H       1  UNL1        0.2017
     29 H         118.0637  154.3175  148.5864 H       1  UNL1        0.2017
     30 H         122.2238  155.0037  147.8342 H       1  UNL1        0.0302
     31 H         122.5890  153.3669  148.3115 H       1  UNL1        0.0302
     32 H         124.7058  154.6475  148.8875 H       1  UNL1        0.0293
     33 H         124.5940  156.1089  147.8828 H       1  UNL1        0.0293
     34 H         124.5940  152.4094  145.7961 H       1  UNL1        0.0293
     35 H         124.7680  152.3470  147.5631 H       1  UNL1        0.0293
     36 H         121.3637  155.5163  145.4214 H       1  UNL1        0.0296
     37 H         120.9667  154.1914  144.3379 H       1  UNL1        0.0296
     38 H         126.9447  154.7255  148.2815 H       1  UNL1        0.0266
     39 H         126.6299  155.6561  146.8143 H       1  UNL1        0.0266
     40 H         126.5049  153.7732  145.5409 H       1  UNL1        0.0266
     41 H         126.9932  152.8065  146.9367 H       1  UNL1        0.0266
     42 H         119.2906  153.6730  146.1964 H       1  UNL1        0.0326
     43 H         119.9466  154.9355  147.2169 H       1  UNL1        0.0326
     44 H         123.4146  153.5223  144.3241 H       1  UNL1        0.0560
     45 H         123.1490  155.1783  143.7926 H       1  UNL1        0.0560
     46 H         119.7782  151.9830  148.0456 H       1  UNL1        0.0814
     47 H         120.2892  153.3597  149.0774 H       1  UNL1        0.0814
     48 H         122.7312  151.3177  147.6168 H       1  UNL1        0.0636
     49 H         122.5865  148.9961  146.8475 H       1  UNL1        0.0619
     50 H         120.0587  150.3097  143.6519 H       1  UNL1        0.0829
     51 H         116.8098  153.1087  150.0623 H       1  UNL1        0.0873
     52 H         118.4725  153.1498  150.6518 H       1  UNL1        0.0873
     53 H         121.2391  148.4460  144.8214 H       1  UNL1        0.0633
     54 H         119.1479  148.1792  150.4085 H       1  UNL1        0.0659
     55 H         116.7235  147.9292  149.4659 H       1  UNL1        0.0694
     56 H         121.8789  150.5741  151.5069 H       1  UNL1        0.0660
     57 H         121.3246  149.3514  150.3557 H       1  UNL1        0.0660
     58 H         120.6261  149.4337  152.0201 H       1  UNL1        0.0660
@<TRIPOS>UNITY_ATOM_ATTR
5 1
charge 1
@<TRIPOS>BOND
     1     1    23   ar
     2     1    26   ar
     3     2     6    1
     4     2    15    1
     5     3    24    1
     6     3    27    1
     7     4    16   ar
     8     4    20   ar
     9     5    17    1
    10     5    21    1
    11     5    28    1
    12     5    29    1
    13     6     8    1
    14     6     9    1
    15     6    10    1
    16     7     8    1
    17     7    11    1
    18     7    14    1
    19     7    16    1
    20     8    30    1
    21     8    31    1
    22     9    12    1
    23     9    32    1
    24     9    33    1
    25    10    13    1
    26    10    34    1
    27    10    35    1
    28    11    15    1
    29    11    36    1
    30    11    37    1
    31    12    13    1
    32    12    38    1
    33    12    39    1
    34    13    40    1
    35    13    41    1
    36    14    17    1
    37    14    42    1
    38    14    43    1
    39    15    44    1
    40    15    45    1
    41    16    18   ar
    42    17    46    1
    43    17    47    1
    44    18    19   ar
    45    18    48    1
    46    19    22   ar
    47    19    49    1
    48    20    22   ar
    49    20    50    1
    50    21    23    1
    51    21    51    1
    52    21    52    1
    53    22    53    1
    54    23    24   ar
    55    24    25   ar
    56    25    26   ar
    57    25    54    1
    58    26    55    1
    59    27    56    1
    60    27    57    1
    61    27    58    1
@<TRIPOS>MOLECULE
66553195
 58 61 0 0 0
SMALL
GASTEIGER

@<TRIPOS>ATOM
      1 S         115.0725  153.8667  145.1104 S.2     1  UNL1       -0.0926
      2 O         123.8752  154.7061  145.7924 O.3     1  UNL1       -0.3733
      3 O         116.0530  150.1643  144.6941 O.3     1  UNL1       -0.4941
      4 N         120.8981  151.5879  144.9550 N.ar    1  UNL1       -0.2593
      5 N         118.4695  152.6532  145.3190 N.4     1  UNL1        0.2308
      6 C         123.8100  153.9828  147.0244 C.3     1  UNL1        0.0704
      7 C         121.2970  153.4776  146.4891 C.3     1  UNL1        0.0224
      8 C         122.3595  153.9348  147.5395 C.3     1  UNL1       -0.0124
      9 C         124.7136  154.7289  148.0212 C.3     1  UNL1       -0.0237
     10 C         124.5403  152.6378  146.9324 C.3     1  UNL1       -0.0237
     11 C         121.5703  154.3111  145.2056 C.3     1  UNL1       -0.0181
     12 C         126.1380  154.3418  147.6258 C.3     1  UNL1       -0.0504
     13 C         126.0206  153.0129  146.8840 C.3     1  UNL1       -0.0504
     14 C         119.8713  153.8003  147.0571 C.3     1  UNL1       -0.0013
     15 C         123.0244  154.2205  144.7651 C.3     1  UNL1        0.0492
     16 C         121.3280  151.9677  146.1942 C.ar    1  UNL1        0.0478
     17 C         118.7037  153.9099  146.0665 C.3     1  UNL1       -0.0325
     18 C         121.6496  151.0175  147.1630 C.ar    1  UNL1       -0.0398
     19 C         121.6430  149.6647  146.8276 C.ar    1  UNL1       -0.0586
     20 C         120.9532  150.2657  144.6425 C.ar    1  UNL1        0.0279
     21 C         117.4503  152.7153  144.2333 C.3     1  UNL1        0.0021
     22 C         121.3081  149.2788  145.5392 C.ar    1  UNL1       -0.0436
     23 C         116.0633  152.5205  144.7397 C.ar    1  UNL1        0.0756
     24 C         115.4017  151.3279  144.9474 C.ar    1  UNL1        0.1353
     25 C         114.0796  151.5232  145.4415 C.ar    1  UNL1       -0.0124
     26 C         113.7735  152.8606  145.5778 C.ar    1  UNL1       -0.0203
     27 C         115.2005  149.0252  144.5878 C.3     1  UNL1        0.0788
     28 H         118.2261  151.8806  145.9515 H       1  UNL1        0.2017
     29 H         119.3606  152.3385  144.8866 H       1  UNL1        0.2017
     30 H         122.1017  154.9664  147.8241 H       1  UNL1        0.0302
     31 H         122.2952  153.3602  148.4698 H       1  UNL1        0.0302
     32 H         124.5196  154.3973  149.0487 H       1  UNL1        0.0293
     33 H         124.5834  155.8157  147.9792 H       1  UNL1        0.0293
     34 H         124.2788  152.0394  146.0568 H       1  UNL1        0.0293
     35 H         124.3555  152.0357  147.8301 H       1  UNL1        0.0293
     36 H         121.3463  155.3648  145.4223 H       1  UNL1        0.0296
     37 H         120.9277  154.0198  144.3679 H       1  UNL1        0.0296
     38 H         126.7833  154.2607  148.5065 H       1  UNL1        0.0266
     39 H         126.5762  155.1003  146.9671 H       1  UNL1        0.0266
     40 H         126.3488  153.1369  145.8453 H       1  UNL1        0.0266
     41 H         126.6454  152.2356  147.3352 H       1  UNL1        0.0266
     42 H         119.9129  154.7720  147.5683 H       1  UNL1        0.0326
     43 H         119.6081  153.0729  147.8373 H       1  UNL1        0.0326
     44 H         123.3093  153.2062  144.4704 H       1  UNL1        0.0560
     45 H         123.1772  154.8586  143.8884 H       1  UNL1        0.0560
     46 H         117.7847  154.1354  146.6162 H       1  UNL1        0.0814
     47 H         118.8760  154.7082  145.3380 H       1  UNL1        0.0814
     48 H         121.9228  151.2914  148.1768 H       1  UNL1        0.0636
     49 H         121.9209  148.9166  147.5675 H       1  UNL1        0.0619
     50 H         120.6896  150.0116  143.6183 H       1  UNL1        0.0829
     51 H         117.7106  151.9130  143.5333 H       1  UNL1        0.0873
     52 H         117.5831  153.6624  143.6988 H       1  UNL1        0.0873
     53 H         121.3285  148.2345  145.2445 H       1  UNL1        0.0633
     54 H         113.3717  150.7423  145.6911 H       1  UNL1        0.0659
     55 H         112.8439  153.2930  145.9264 H       1  UNL1        0.0694
     56 H         115.8122  148.1805  144.2568 H       1  UNL1        0.0660
     57 H         114.4160  149.1837  143.8393 H       1  UNL1        0.0660
     58 H         114.7693  148.7678  145.5605 H       1  UNL1        0.0660
@<TRIPOS>UNITY_ATOM_ATTR
5 1
charge 1
@<TRIPOS>BOND
     1     1    23   ar
     2     1    26   ar
     3     2     6    1
     4     2    15    1
     5     3    24    1
     6     3    27    1
     7     4    16   ar
     8     4    20   ar
     9     5    17    1
    10     5    21    1
    11     5    28    1
    12     5    29    1
    13     6     8    1
    14     6     9    1
    15     6    10    1
    16     7     8    1
    17     7    11    1
    18     7    14    1
    19     7    16    1
    20     8    30    1
    21     8    31    1
    22     9    12    1
    23     9    32    1
    24     9    33    1
    25    10    13    1
    26    10    34    1
    27    10    35    1
    28    11    15    1
    29    11    36    1
    30    11    37    1
    31    12    13    1
    32    12    38    1
    33    12    39    1
    34    13    40    1
    35    13    41    1
    36    14    17    1
    37    14    42    1
    38    14    43    1
    39    15    44    1
    40    15    45    1
    41    16    18   ar
    42    17    46    1
    43    17    47    1
    44    18    19   ar
    45    18    48    1
    46    19    22   ar
    47    19    49    1
    48    20    22   ar
    49    20    50    1
    50    21    23    1
    51    21    51    1
    52    21    52    1
    53    22    53    1
    54    23    24   ar
    55    24    25   ar
    56    25    26   ar
    57    25    54    1
    58    26    55    1
    59    27    56    1
    60    27    57    1
    61    27    58    1
@<TRIPOS>MOLECULE
66553195
 58 61 0 0 0
SMALL
GASTEIGER

@<TRIPOS>ATOM
      1 S         117.7765  151.7255  151.2018 S.2     1  UNL1       -0.0926
      2 O         124.0403  155.0286  145.5174 O.3     1  UNL1       -0.3733
      3 O         116.4660  149.5596  148.2988 O.3     1  UNL1       -0.4941
      4 N         120.8268  151.4463  145.6456 N.ar    1  UNL1       -0.2593
      5 N         119.1928  151.8314  147.9325 N.4     1  UNL1        0.2308
      6 C         124.2163  154.4669  146.8181 C.3     1  UNL1        0.0704
      7 C         121.7547  153.5167  146.5738 C.3     1  UNL1        0.0224
      8 C         122.8536  154.1552  147.4832 C.3     1  UNL1       -0.0124
      9 C         124.9849  155.5155  147.6464 C.3     1  UNL1       -0.0237
     10 C         125.2516  153.3355  146.7904 C.3     1  UNL1       -0.0237
     11 C         121.8250  154.2008  145.1787 C.3     1  UNL1       -0.0181
     12 C         126.4333  155.4262  147.1644 C.3     1  UNL1       -0.0504
     13 C         126.5809  154.0438  146.5362 C.3     1  UNL1       -0.0504
     14 C         120.3309  153.8770  147.1545 C.3     1  UNL1       -0.0013
     15 C         123.2387  154.2560  144.6361 C.3     1  UNL1        0.0492
     16 C         121.8335  151.9931  146.3867 C.ar    1  UNL1        0.0478
     17 C         119.8761  153.0802  148.3776 C.3     1  UNL1       -0.0325
     18 C         122.7690  151.1676  146.9985 C.ar    1  UNL1       -0.0398
     19 C         122.7613  149.7963  146.7337 C.ar    1  UNL1       -0.0586
     20 C         120.8812  150.1242  145.3398 C.ar    1  UNL1        0.0279
     21 C         119.0753  150.7452  148.9439 C.3     1  UNL1        0.0021
     22 C         121.8186  149.2648  145.8676 C.ar    1  UNL1       -0.0436
     23 C         117.8182  150.8464  149.7343 C.ar    1  UNL1        0.0756
     24 C         116.5935  150.2839  149.4395 C.ar    1  UNL1        0.1353
     25 C         115.6093  150.5903  150.4227 C.ar    1  UNL1       -0.0124
     26 C         116.1219  151.3697  151.4381 C.ar    1  UNL1       -0.0203
     27 C         115.2696  148.7878  148.2178 C.3     1  UNL1        0.0788
     28 H         119.6907  151.4515  147.1077 H       1  UNL1        0.2017
     29 H         118.2558  152.0435  147.5666 H       1  UNL1        0.2017
     30 H         122.4592  155.1289  147.8097 H       1  UNL1        0.0302
     31 H         122.9942  153.5853  148.4093 H       1  UNL1        0.0302
     32 H         124.9440  155.2729  148.7157 H       1  UNL1        0.0293
     33 H         124.5956  156.5299  147.5085 H       1  UNL1        0.0293
     34 H         125.0775  152.5840  146.0171 H       1  UNL1        0.0293
     35 H         125.3049  152.8335  147.7637 H       1  UNL1        0.0293
     36 H         121.4662  155.2351  145.2770 H       1  UNL1        0.0296
     37 H         121.1698  153.7105  144.4490 H       1  UNL1        0.0296
     38 H         127.1318  155.5705  147.9951 H       1  UNL1        0.0266
     39 H         126.6444  156.2019  146.4197 H       1  UNL1        0.0266
     40 H         126.7608  154.1413  145.4591 H       1  UNL1        0.0266
     41 H         127.4219  153.4869  146.9610 H       1  UNL1        0.0266
     42 H         119.5706  153.7822  146.3657 H       1  UNL1        0.0326
     43 H         120.3249  154.9415  147.4255 H       1  UNL1        0.0326
     44 H         123.6665  153.2617  144.4779 H       1  UNL1        0.0560
     45 H         123.2385  154.7640  143.6662 H       1  UNL1        0.0560
     46 H         120.7152  152.8143  149.0272 H       1  UNL1        0.0814
     47 H         119.1372  153.6463  148.9527 H       1  UNL1        0.0814
     48 H         123.5250  151.5420  147.6755 H       1  UNL1        0.0636
     49 H         123.5157  149.1505  147.1796 H       1  UNL1        0.0619
     50 H         120.1189  149.7686  144.6500 H       1  UNL1        0.0829
     51 H         119.9755  150.7555  149.5682 H       1  UNL1        0.0873
     52 H         119.0920  149.8066  148.3783 H       1  UNL1        0.0873
     53 H         121.8225  148.2109  145.6084 H       1  UNL1        0.0633
     54 H         114.5746  150.2701  150.4086 H       1  UNL1        0.0659
     55 H         115.5999  151.7447  152.3097 H       1  UNL1        0.0694
     56 H         115.3304  148.1731  147.3146 H       1  UNL1        0.0660
     57 H         114.3919  149.4355  148.1253 H       1  UNL1        0.0660
     58 H         115.1731  148.1133  149.0758 H       1  UNL1        0.0660
@<TRIPOS>UNITY_ATOM_ATTR
5 1
charge 1
@<TRIPOS>BOND
     1     1    23   ar
     2     1    26   ar
     3     2     6    1
     4     2    15    1
     5     3    24    1
     6     3    27    1
     7     4    16   ar
     8     4    20   ar
     9     5    17    1
    10     5    21    1
    11     5    28    1
    12     5    29    1
    13     6     8    1
    14     6     9    1
    15     6    10    1
    16     7     8    1
    17     7    11    1
    18     7    14    1
    19     7    16    1
    20     8    30    1
    21     8    31    1
    22     9    12    1
    23     9    32    1
    24     9    33    1
    25    10    13    1
    26    10    34    1
    27    10    35    1
    28    11    15    1
    29    11    36    1
    30    11    37    1
    31    12    13    1
    32    12    38    1
    33    12    39    1
    34    13    40    1
    35    13    41    1
    36    14    17    1
    37    14    42    1
    38    14    43    1
    39    15    44    1
    40    15    45    1
    41    16    18   ar
    42    17    46    1
    43    17    47    1
    44    18    19   ar
    45    18    48    1
    46    19    22   ar
    47    19    49    1
    48    20    22   ar
    49    20    50    1
    50    21    23    1
    51    21    51    1
    52    21    52    1
    53    22    53    1
    54    23    24   ar
    55    24    25   ar
    56    25    26   ar
    57    25    54    1
    58    26    55    1
    59    27    56    1
    60    27    57    1
    61    27    58    1
@<TRIPOS>MOLECULE
66553195
 58 61 0 0 0
SMALL
GASTEIGER

@<TRIPOS>ATOM
      1 S         118.4746  159.5181  146.6591 S.2     1  UNL1       -0.0926
      2 O         124.2142  154.6768  145.7442 O.3     1  UNL1       -0.3733
      3 O         116.7121  156.2499  145.6248 O.3     1  UNL1       -0.4941
      4 N         121.1237  151.8085  145.1096 N.ar    1  UNL1       -0.2593
      5 N         118.5043  155.7529  147.8529 N.4     1  UNL1        0.2308
      6 C         124.1413  153.9988  147.0024 C.3     1  UNL1        0.0704
      7 C         121.5863  153.7129  146.5979 C.3     1  UNL1        0.0224
      8 C         122.7190  154.1139  147.5844 C.3     1  UNL1       -0.0124
      9 C         125.1586  154.6827  147.9321 C.3     1  UNL1       -0.0237
     10 C         124.7307  152.5851  146.9285 C.3     1  UNL1       -0.0237
     11 C         121.8639  154.4685  145.2671 C.3     1  UNL1       -0.0181
     12 C         126.5183  154.1416  147.4931 C.3     1  UNL1       -0.0504
     13 C         126.2367  152.8094  146.8035 C.3     1  UNL1       -0.0504
     14 C         120.1783  154.1006  147.1586 C.3     1  UNL1       -0.0013
     15 C         123.2809  154.2255  144.7666 C.3     1  UNL1        0.0492
     16 C         121.4941  152.1940  146.3554 C.ar    1  UNL1        0.0478
     17 C         119.9108  155.5896  147.3655 C.3     1  UNL1       -0.0325
     18 C         121.6706  151.2570  147.3757 C.ar    1  UNL1       -0.0398
     19 C         121.5278  149.8998  147.0910 C.ar    1  UNL1       -0.0586
     20 C         121.0004  150.4853  144.8555 C.ar    1  UNL1        0.0279
     21 C         118.0746  157.1693  148.0814 C.3     1  UNL1        0.0021
     22 C         121.1934  149.5022  145.8052 C.ar    1  UNL1       -0.0436
     23 C         117.8751  157.9229  146.8108 C.ar    1  UNL1        0.0756
     24 C         117.2267  157.5080  145.6637 C.ar    1  UNL1        0.1353
     25 C         117.2278  158.5129  144.6535 C.ar    1  UNL1       -0.0124
     26 C         117.8731  159.6587  145.0669 C.ar    1  UNL1       -0.0203
     27 C         115.9573  155.9590  144.4476 C.3     1  UNL1        0.0788
     28 H         118.3529  155.2141  148.7123 H       1  UNL1        0.2017
     29 H         117.8541  155.3688  147.1472 H       1  UNL1        0.2017
     30 H         122.5761  155.1731  147.8370 H       1  UNL1        0.0302
     31 H         122.6458  153.5772  148.5364 H       1  UNL1        0.0302
     32 H         124.9794  154.4056  148.9784 H       1  UNL1        0.0293
     33 H         125.1344  155.7751  147.8560 H       1  UNL1        0.0293
     34 H         124.3736  151.9868  146.0875 H       1  UNL1        0.0293
     35 H         124.5272  152.0334  147.8542 H       1  UNL1        0.0293
     36 H         121.7753  155.5481  145.4374 H       1  UNL1        0.0296
     37 H         121.1356  154.2152  144.4882 H       1  UNL1        0.0296
     38 H         127.1898  154.0222  148.3495 H       1  UNL1        0.0266
     39 H         127.0010  154.8315  146.7916 H       1  UNL1        0.0266
     40 H         126.5265  152.8693  145.7479 H       1  UNL1        0.0266
     41 H         126.8026  151.9876  147.2534 H       1  UNL1        0.0266
     42 H         120.0185  153.5838  148.1158 H       1  UNL1        0.0326
     43 H         119.4063  153.7116  146.4781 H       1  UNL1        0.0326
     44 H         123.4682  153.1815  144.5013 H       1  UNL1        0.0560
     45 H         123.4513  154.8169  143.8609 H       1  UNL1        0.0560
     46 H         120.5608  156.0234  148.1296 H       1  UNL1        0.0814
     47 H         119.9903  156.1541  146.4345 H       1  UNL1        0.0814
     48 H         121.9213  151.5475  148.3894 H       1  UNL1        0.0636
     49 H         121.6805  149.1559  147.8691 H       1  UNL1        0.0619
     50 H         120.7327  150.2305  143.8335 H       1  UNL1        0.0829
     51 H         118.8176  157.6237  148.7453 H       1  UNL1        0.0873
     52 H         117.1245  157.1090  148.6239 H       1  UNL1        0.0873
     53 H         121.0838  148.4536  145.5508 H       1  UNL1        0.0633
     54 H         116.7882  158.4274  143.6669 H       1  UNL1        0.0659
     55 H         118.0197  160.5739  144.5066 H       1  UNL1        0.0694
     56 H         115.1103  156.6452  144.3416 H       1  UNL1        0.0660
     57 H         115.5578  154.9456  144.5510 H       1  UNL1        0.0660
     58 H         116.5960  155.9787  143.5583 H       1  UNL1        0.0660
@<TRIPOS>UNITY_ATOM_ATTR
5 1
charge 1
@<TRIPOS>BOND
     1     1    23   ar
     2     1    26   ar
     3     2     6    1
     4     2    15    1
     5     3    24    1
     6     3    27    1
     7     4    16   ar
     8     4    20   ar
     9     5    17    1
    10     5    21    1
    11     5    28    1
    12     5    29    1
    13     6     8    1
    14     6     9    1
    15     6    10    1
    16     7     8    1
    17     7    11    1
    18     7    14    1
    19     7    16    1
    20     8    30    1
    21     8    31    1
    22     9    12    1
    23     9    32    1
    24     9    33    1
    25    10    13    1
    26    10    34    1
    27    10    35    1
    28    11    15    1
    29    11    36    1
    30    11    37    1
    31    12    13    1
    32    12    38    1
    33    12    39    1
    34    13    40    1
    35    13    41    1
    36    14    17    1
    37    14    42    1
    38    14    43    1
    39    15    44    1
    40    15    45    1
    41    16    18   ar
    42    17    46    1
    43    17    47    1
    44    18    19   ar
    45    18    48    1
    46    19    22   ar
    47    19    49    1
    48    20    22   ar
    49    20    50    1
    50    21    23    1
    51    21    51    1
    52    21    52    1
    53    22    53    1
    54    23    24   ar
    55    24    25   ar
    56    25    26   ar
    57    25    54    1
    58    26    55    1
    59    27    56    1
    60    27    57    1
    61    27    58    1
@<TRIPOS>MOLECULE
66553195
 58 61 0 0 0
SMALL
GASTEIGER

@<TRIPOS>ATOM
      1 S         118.2256  154.6776  152.0767 S.2     1  UNL1       -0.0926
      2 O         123.8621  154.9782  145.4346 O.3     1  UNL1       -0.3733
      3 O         120.4168  151.6226  151.2275 O.3     1  UNL1       -0.4941
      4 N         120.5548  151.6992  145.0873 N.ar    1  UNL1       -0.2593
      5 N         118.4182  153.5145  148.7838 N.4     1  UNL1        0.2308
      6 C         123.9878  154.2648  146.6653 C.3     1  UNL1        0.0704
      7 C         121.4710  153.5619  146.3717 C.3     1  UNL1        0.0224
      8 C         122.6075  154.0464  147.3201 C.3     1  UNL1       -0.0124
      9 C         124.8803  155.1223  147.5821 C.3     1  UNL1       -0.0237
     10 C         124.8723  153.0230  146.5021 C.3     1  UNL1       -0.0237
     11 C         121.5666  154.3963  145.0628 C.3     1  UNL1       -0.0181
     12 C         126.3045  154.9048  147.0714 C.3     1  UNL1       -0.0504
     13 C         126.2781  153.5862  146.3035 C.3     1  UNL1       -0.0504
     14 C         120.0764  153.8906  147.0091 C.3     1  UNL1       -0.0013
     15 C         122.9722  154.3926  144.4922 C.3     1  UNL1        0.0492
     16 C         121.4543  152.0643  146.0360 C.ar    1  UNL1        0.0478
     17 C         119.7747  153.1184  148.2898 C.3     1  UNL1       -0.0325
     18 C         122.1953  151.1009  146.7168 C.ar    1  UNL1       -0.0398
     19 C         122.0702  149.7575  146.3609 C.ar    1  UNL1       -0.0586
     20 C         120.4631  150.3936  144.7439 C.ar    1  UNL1        0.0279
     21 C         117.9858  152.8142  150.0350 C.3     1  UNL1        0.0021
     22 C         121.1962  149.3940  145.3481 C.ar    1  UNL1       -0.0436
     23 C         118.7372  153.2758  151.2359 C.ar    1  UNL1        0.0756
     24 C         119.8650  152.7201  151.8058 C.ar    1  UNL1        0.1353
     25 C         120.2990  153.4455  152.9534 C.ar    1  UNL1       -0.0124
     26 C         119.4909  154.5315  153.2142 C.ar    1  UNL1       -0.0203
     27 C         121.5265  151.0720  151.9336 C.3     1  UNL1        0.0788
     28 H         117.7269  153.3194  148.0493 H       1  UNL1        0.2017
     29 H         118.3854  154.5269  148.9579 H       1  UNL1        0.2017
     30 H         122.2931  155.0290  147.7036 H       1  UNL1        0.0302
     31 H         122.7011  153.4114  148.2084 H       1  UNL1        0.0302
     32 H         124.8133  154.7799  148.6225 H       1  UNL1        0.0293
     33 H         124.6179  156.1853  147.5527 H       1  UNL1        0.0293
     34 H         124.6018  152.3838  145.6587 H       1  UNL1        0.0293
     35 H         124.8640  152.4173  147.4158 H       1  UNL1        0.0293
     36 H         121.3015  155.4382  145.2909 H       1  UNL1        0.0296
     37 H         120.8565  154.0563  144.3003 H       1  UNL1        0.0296
     38 H         127.0174  154.8760  147.9019 H       1  UNL1        0.0266
     39 H         126.6082  155.7212  146.4065 H       1  UNL1        0.0266
     40 H         126.4673  153.7716  145.2397 H       1  UNL1        0.0266
     41 H         127.0447  152.8899  146.6578 H       1  UNL1        0.0266
     42 H         119.2774  153.6941  146.2801 H       1  UNL1        0.0326
     43 H         120.0203  154.9669  147.2238 H       1  UNL1        0.0326
     44 H         123.3052  153.3911  144.2046 H       1  UNL1        0.0560
     45 H         123.0018  155.0120  143.5898 H       1  UNL1        0.0560
     46 H         119.7449  152.0372  148.1318 H       1  UNL1        0.0814
     47 H         120.4964  153.3687  149.0703 H       1  UNL1        0.0814
     48 H         122.8750  151.3481  147.5220 H       1  UNL1        0.0636
     49 H         122.6621  148.9982  146.8669 H       1  UNL1        0.0619
     50 H         119.7617  150.1694  143.9444 H       1  UNL1        0.0829
     51 H         118.0985  151.7383  149.8624 H       1  UNL1        0.0873
     52 H         116.9139  153.0177  150.1375 H       1  UNL1        0.0873
     53 H         121.0910  148.3600  145.0377 H       1  UNL1        0.0633
     54 H         121.1557  153.2068  153.5721 H       1  UNL1        0.0659
     55 H         119.5873  155.2480  154.0207 H       1  UNL1        0.0694
     56 H         121.8582  150.1818  151.3905 H       1  UNL1        0.0660
     57 H         121.2393  150.7625  152.9441 H       1  UNL1        0.0660
     58 H         122.3634  151.7781  151.9598 H       1  UNL1        0.0660
@<TRIPOS>UNITY_ATOM_ATTR
5 1
charge 1
@<TRIPOS>BOND
     1     1    23   ar
     2     1    26   ar
     3     2     6    1
     4     2    15    1
     5     3    24    1
     6     3    27    1
     7     4    16   ar
     8     4    20   ar
     9     5    17    1
    10     5    21    1
    11     5    28    1
    12     5    29    1
    13     6     8    1
    14     6     9    1
    15     6    10    1
    16     7     8    1
    17     7    11    1
    18     7    14    1
    19     7    16    1
    20     8    30    1
    21     8    31    1
    22     9    12    1
    23     9    32    1
    24     9    33    1
    25    10    13    1
    26    10    34    1
    27    10    35    1
    28    11    15    1
    29    11    36    1
    30    11    37    1
    31    12    13    1
    32    12    38    1
    33    12    39    1
    34    13    40    1
    35    13    41    1
    36    14    17    1
    37    14    42    1
    38    14    43    1
    39    15    44    1
    40    15    45    1
    41    16    18   ar
    42    17    46    1
    43    17    47    1
    44    18    19   ar
    45    18    48    1
    46    19    22   ar
    47    19    49    1
    48    20    22   ar
    49    20    50    1
    50    21    23    1
    51    21    51    1
    52    21    52    1
    53    22    53    1
    54    23    24   ar
    55    24    25   ar
    56    25    26   ar
    57    25    54    1
    58    26    55    1
    59    27    56    1
    60    27    57    1
    61    27    58    1
@<TRIPOS>MOLECULE
66553195
 58 61 0 0 0
SMALL
GASTEIGER

@<TRIPOS>ATOM
      1 S         115.2711  154.7785  148.9935 S.2     1  UNL1       -0.0926
      2 O         124.0715  155.0550  145.6502 O.3     1  UNL1       -0.3733
      3 O         115.3613  151.1311  147.7558 O.3     1  UNL1       -0.4941
      4 N         121.1892  151.5338  147.2267 N.ar    1  UNL1       -0.2593
      5 N         117.6325  153.9383  146.6940 N.4     1  UNL1        0.2308
      6 C         124.0105  154.2467  146.8292 C.3     1  UNL1        0.0704
      7 C         121.5196  153.7538  146.2678 C.3     1  UNL1        0.0224
      8 C         122.5659  154.1888  147.3357 C.3     1  UNL1       -0.0124
      9 C         124.9220  154.9095  147.8750 C.3     1  UNL1       -0.0237
     10 C         124.7092  152.8930  146.6534 C.3     1  UNL1       -0.0237
     11 C         121.7821  154.5705  144.9784 C.3     1  UNL1       -0.0181
     12 C         126.3386  154.5199  147.4597 C.3     1  UNL1       -0.0504
     13 C         126.2000  153.2273  146.6605 C.3     1  UNL1       -0.0504
     14 C         120.1079  154.1353  146.8412 C.3     1  UNL1       -0.0013
     15 C         123.2545  154.6155  144.5761 C.3     1  UNL1        0.0492
     16 C         121.5386  152.2275  146.1105 C.ar    1  UNL1        0.0478
     17 C         118.9273  153.6027  146.0308 C.3     1  UNL1       -0.0325
     18 C         121.7995  151.5671  144.9111 C.ar    1  UNL1       -0.0398
     19 C         121.7640  150.1732  144.8744 C.ar    1  UNL1       -0.0586
     20 C         121.1852  150.1813  147.1712 C.ar    1  UNL1        0.0279
     21 C         117.3810  153.2630  148.0080 C.3     1  UNL1        0.0021
     22 C         121.4610  149.4631  146.0260 C.ar    1  UNL1       -0.0436
     23 C         115.9371  153.3304  148.3676 C.ar    1  UNL1        0.0756
     24 C         114.9892  152.3345  148.2593 C.ar    1  UNL1        0.1353
     25 C         113.7046  152.7661  148.6995 C.ar    1  UNL1       -0.0124
     26 C         113.7193  154.0762  149.1285 C.ar    1  UNL1       -0.0203
     27 C         114.3891  150.0988  147.9032 C.3     1  UNL1        0.0788
     28 H         116.8683  153.6502  146.0690 H       1  UNL1        0.2017
     29 H         117.5238  154.9520  146.8202 H       1  UNL1        0.2017
     30 H         122.2989  155.2060  147.6597 H       1  UNL1        0.0302
     31 H         122.5041  153.5627  148.2353 H       1  UNL1        0.0302
     32 H         124.7178  154.5150  148.8782 H       1  UNL1        0.0293
     33 H         124.8128  155.9989  147.9040 H       1  UNL1        0.0293
     34 H         124.4559  152.3650  145.7325 H       1  UNL1        0.0293
     35 H         124.4829  152.2303  147.4980 H       1  UNL1        0.0293
     36 H         121.4750  155.6094  145.1633 H       1  UNL1        0.0296
     37 H         121.1733  154.2177  144.1384 H       1  UNL1        0.0296
     38 H         126.9863  154.3916  148.3330 H       1  UNL1        0.0266
     39 H         126.7845  155.3005  146.8327 H       1  UNL1        0.0266
     40 H         126.5613  153.3828  145.6373 H       1  UNL1        0.0266
     41 H         126.7880  152.4129  147.0956 H       1  UNL1        0.0266
     42 H         120.0233  155.2279  146.9196 H       1  UNL1        0.0326
     43 H         120.0385  153.7640  147.8717 H       1  UNL1        0.0326
     44 H         123.6196  153.6592  144.1953 H       1  UNL1        0.0560
     45 H         123.3783  155.3353  143.7596 H       1  UNL1        0.0560
     46 H         118.8881  154.0711  145.0426 H       1  UNL1        0.0814
     47 H         118.9322  152.5174  145.9014 H       1  UNL1        0.0814
     48 H         122.0435  152.0905  143.9942 H       1  UNL1        0.0636
     49 H         121.9876  149.6438  143.9508 H       1  UNL1        0.0619
     50 H         120.9478  149.6755  148.1035 H       1  UNL1        0.0829
     51 H         117.9987  153.7660  148.7592 H       1  UNL1        0.0873
     52 H         117.7196  152.2258  147.9138 H       1  UNL1        0.0873
     53 H         121.4468  148.3784  146.0301 H       1  UNL1        0.0633
     54 H         112.8015  152.1676  148.7095 H       1  UNL1        0.0659
     55 H         112.8886  154.6537  149.5150 H       1  UNL1        0.0694
     56 H         113.5033  150.3054  147.2938 H       1  UNL1        0.0660
     57 H         114.1192  149.9554  148.9551 H       1  UNL1        0.0660
     58 H         114.8352  149.1672  147.5419 H       1  UNL1        0.0660
@<TRIPOS>UNITY_ATOM_ATTR
5 1
charge 1
@<TRIPOS>BOND
     1     1    23   ar
     2     1    26   ar
     3     2     6    1
     4     2    15    1
     5     3    24    1
     6     3    27    1
     7     4    16   ar
     8     4    20   ar
     9     5    17    1
    10     5    21    1
    11     5    28    1
    12     5    29    1
    13     6     8    1
    14     6     9    1
    15     6    10    1
    16     7     8    1
    17     7    11    1
    18     7    14    1
    19     7    16    1
    20     8    30    1
    21     8    31    1
    22     9    12    1
    23     9    32    1
    24     9    33    1
    25    10    13    1
    26    10    34    1
    27    10    35    1
    28    11    15    1
    29    11    36    1
    30    11    37    1
    31    12    13    1
    32    12    38    1
    33    12    39    1
    34    13    40    1
    35    13    41    1
    36    14    17    1
    37    14    42    1
    38    14    43    1
    39    15    44    1
    40    15    45    1
    41    16    18   ar
    42    17    46    1
    43    17    47    1
    44    18    19   ar
    45    18    48    1
    46    19    22   ar
    47    19    49    1
    48    20    22   ar
    49    20    50    1
    50    21    23    1
    51    21    51    1
    52    21    52    1
    53    22    53    1
    54    23    24   ar
    55    24    25   ar
    56    25    26   ar
    57    25    54    1
    58    26    55    1
    59    27    56    1
    60    27    57    1
    61    27    58    1
@<TRIPOS>MOLECULE
66553195
 58 61 0 0 0
SMALL
GASTEIGER

@<TRIPOS>ATOM
      1 S         120.0754  154.3653  151.2327 S.2     1  UNL1       -0.0926
      2 O         123.8986  154.9348  145.6246 O.3     1  UNL1       -0.3733
      3 O         118.0938  157.5118  150.2239 O.3     1  UNL1       -0.4941
      4 N         120.9829  151.8295  144.8477 N.ar    1  UNL1       -0.2593
      5 N         118.2157  155.3187  148.0168 N.4     1  UNL1        0.2308
      6 C         123.9341  154.1672  146.8318 C.3     1  UNL1        0.0704
      7 C         121.4089  153.6399  146.4530 C.3     1  UNL1        0.0224
      8 C         122.5247  154.0734  147.4467 C.3     1  UNL1       -0.0124
      9 C         124.8868  154.8998  147.7930 C.3     1  UNL1       -0.0237
     10 C         124.6818  152.8420  146.6464 C.3     1  UNL1       -0.0237
     11 C         121.5698  154.5234  145.1850 C.3     1  UNL1       -0.0181
     12 C         126.2892  154.5553  147.2957 C.3     1  UNL1       -0.0504
     13 C         126.1489  153.2493  146.5183 C.3     1  UNL1       -0.0504
     14 C         119.9909  153.8364  147.0861 C.3     1  UNL1       -0.0013
     15 C         122.9885  154.4572  144.6376 C.3     1  UNL1        0.0492
     16 C         121.4487  152.1453  146.0818 C.ar    1  UNL1        0.0478
     17 C         119.5807  155.2732  147.3991 C.3     1  UNL1       -0.0325
     18 C         121.8173  151.1487  146.9870 C.ar    1  UNL1       -0.0398
     19 C         121.7690  149.8125  146.5916 C.ar    1  UNL1       -0.0586
     20 C         120.9514  150.5265  144.4848 C.ar    1  UNL1        0.0279
     21 C         118.0415  154.6972  149.3689 C.3     1  UNL1        0.0021
     22 C         121.3338  149.4918  145.3146 C.ar    1  UNL1       -0.0436
     23 C         118.9172  155.3130  150.4033 C.ar    1  UNL1        0.0756
     24 C         118.9400  156.6293  150.8160 C.ar    1  UNL1        0.1353
     25 C         119.9207  156.8585  151.8239 C.ar    1  UNL1       -0.0124
     26 C         120.6083  155.7073  152.1452 C.ar    1  UNL1       -0.0203
     27 C         118.0280  158.7842  150.8685 C.3     1  UNL1        0.0788
     28 H         117.5242  154.9199  147.3708 H       1  UNL1        0.2017
     29 H         117.9575  156.3100  148.1347 H       1  UNL1        0.2017
     30 H         122.2799  155.0850  147.7955 H       1  UNL1        0.0302
     31 H         122.5355  153.4545  148.3505 H       1  UNL1        0.0302
     32 H         124.7656  154.5314  148.8194 H       1  UNL1        0.0293
     33 H         124.7332  155.9843  147.7962 H       1  UNL1        0.0293
     34 H         124.3766  152.2681  145.7687 H       1  UNL1        0.0293
     35 H         124.5651  152.2057  147.5320 H       1  UNL1        0.0293
     36 H         121.3815  155.5717  145.4466 H       1  UNL1        0.0296
     37 H         120.8475  154.2626  144.4032 H       1  UNL1        0.0296
     38 H         126.9905  154.4588  148.1309 H       1  UNL1        0.0266
     39 H         126.6704  155.3441  146.6372 H       1  UNL1        0.0266
     40 H         126.4084  153.4140  145.4660 H       1  UNL1        0.0266
     41 H         126.8153  152.4709  146.9031 H       1  UNL1        0.0266
     42 H         119.9473  153.2357  148.0030 H       1  UNL1        0.0326
     43 H         119.2300  153.4128  146.4145 H       1  UNL1        0.0326
     44 H         123.2693  153.4560  144.2991 H       1  UNL1        0.0560
     45 H         123.0746  155.1211  143.7710 H       1  UNL1        0.0560
     46 H         120.2655  155.7813  148.0808 H       1  UNL1        0.0814
     47 H         119.4932  155.8690  146.4865 H       1  UNL1        0.0814
     48 H         122.1451  151.3746  147.9950 H       1  UNL1        0.0636
     49 H         122.0715  149.0253  147.2779 H       1  UNL1        0.0619
     50 H         120.5962  150.3324  143.4763 H       1  UNL1        0.0829
     51 H         118.1878  153.6189  149.2565 H       1  UNL1        0.0873
     52 H         116.9893  154.8541  149.6330 H       1  UNL1        0.0873
     53 H         121.2908  148.4622  144.9763 H       1  UNL1        0.0633
     54 H         120.1344  157.8069  152.3021 H       1  UNL1        0.0659
     55 H         121.4006  155.5929  152.8747 H       1  UNL1        0.0694
     56 H         117.2593  159.3751  150.3616 H       1  UNL1        0.0660
     57 H         118.9789  159.3191  150.7752 H       1  UNL1        0.0660
     58 H         117.7347  158.6817  151.9191 H       1  UNL1        0.0660
@<TRIPOS>UNITY_ATOM_ATTR
5 1
charge 1
@<TRIPOS>BOND
     1     1    23   ar
     2     1    26   ar
     3     2     6    1
     4     2    15    1
     5     3    24    1
     6     3    27    1
     7     4    16   ar
     8     4    20   ar
     9     5    17    1
    10     5    21    1
    11     5    28    1
    12     5    29    1
    13     6     8    1
    14     6     9    1
    15     6    10    1
    16     7     8    1
    17     7    11    1
    18     7    14    1
    19     7    16    1
    20     8    30    1
    21     8    31    1
    22     9    12    1
    23     9    32    1
    24     9    33    1
    25    10    13    1
    26    10    34    1
    27    10    35    1
    28    11    15    1
    29    11    36    1
    30    11    37    1
    31    12    13    1
    32    12    38    1
    33    12    39    1
    34    13    40    1
    35    13    41    1
    36    14    17    1
    37    14    42    1
    38    14    43    1
    39    15    44    1
    40    15    45    1
    41    16    18   ar
    42    17    46    1
    43    17    47    1
    44    18    19   ar
    45    18    48    1
    46    19    22   ar
    47    19    49    1
    48    20    22   ar
    49    20    50    1
    50    21    23    1
    51    21    51    1
    52    21    52    1
    53    22    53    1
    54    23    24   ar
    55    24    25   ar
    56    25    26   ar
    57    25    54    1
    58    26    55    1
    59    27    56    1
    60    27    57    1
    61    27    58    1
@<TRIPOS>MOLECULE
66553195
 58 61 0 0 0
SMALL
GASTEIGER

@<TRIPOS>ATOM
      1 S         115.8141  154.7457  150.3610 S.2     1  UNL1       -0.0926
      2 O         123.8270  154.9006  145.7017 O.3     1  UNL1       -0.3733
      3 O         115.7952  150.9629  151.0982 O.3     1  UNL1       -0.4941
      4 N         120.5816  151.6137  145.2380 N.ar    1  UNL1       -0.2593
      5 N         118.2602  153.3687  148.8442 N.4     1  UNL1        0.2308
      6 C         123.9203  154.1808  146.9319 C.3     1  UNL1        0.0704
      7 C         121.4148  153.4790  146.5747 C.3     1  UNL1        0.0224
      8 C         122.5221  153.9709  147.5521 C.3     1  UNL1       -0.0124
      9 C         124.7985  155.0277  147.8717 C.3     1  UNL1       -0.0237
     10 C         124.7984  152.9328  146.7828 C.3     1  UNL1       -0.0237
     11 C         121.5414  154.3177  145.2697 C.3     1  UNL1       -0.0181
     12 C         126.2329  154.7980  147.3952 C.3     1  UNL1       -0.0504
     13 C         126.2119  153.4863  146.6156 C.3     1  UNL1       -0.0504
     14 C         119.9983  153.7936  147.1679 C.3     1  UNL1       -0.0013
     15 C         122.9606  154.3209  144.7338 C.3     1  UNL1        0.0492
     16 C         121.4222  151.9816  146.2376 C.ar    1  UNL1        0.0478
     17 C         119.6692  153.0587  148.4637 C.3     1  UNL1       -0.0325
     18 C         122.1291  151.0208  146.9575 C.ar    1  UNL1       -0.0398
     19 C         122.0340  149.6778  146.5908 C.ar    1  UNL1       -0.0586
     20 C         120.5196  150.3090  144.8849 C.ar    1  UNL1        0.0279
     21 C         117.8589  152.8643  150.1927 C.3     1  UNL1        0.0021
     22 C         121.2234  149.3123  145.5274 C.ar    1  UNL1       -0.0436
     23 C         116.4278  153.1496  150.4935 C.ar    1  UNL1        0.0756
     24 C         115.4597  152.2659  150.9248 C.ar    1  UNL1        0.1353
     25 C         114.1992  152.9021  151.1200 C.ar    1  UNL1       -0.0124
     26 C         114.2531  154.2518  150.8460 C.ar    1  UNL1       -0.0203
     27 C         114.7818  150.1605  151.6996 C.3     1  UNL1        0.0788
     28 H         117.6185  152.9614  148.1498 H       1  UNL1        0.2017
     29 H         118.0852  154.3820  148.8239 H       1  UNL1        0.2017
     30 H         122.1976  154.9571  147.9178 H       1  UNL1        0.0302
     31 H         122.5893  153.3427  148.4474 H       1  UNL1        0.0302
     32 H         124.7033  154.6837  148.9093 H       1  UNL1        0.0293
     33 H         124.5470  156.0933  147.8387 H       1  UNL1        0.0293
     34 H         124.5418  152.2984  145.9316 H       1  UNL1        0.0293
     35 H         124.7664  152.3240  147.6939 H       1  UNL1        0.0293
     36 H         121.2680  155.3583  145.4940 H       1  UNL1        0.0296
     37 H         120.8510  153.9789  144.4887 H       1  UNL1        0.0296
     38 H         126.9237  154.7534  148.2436 H       1  UNL1        0.0266
     39 H         126.5635  155.6164  146.7457 H       1  UNL1        0.0266
     40 H         126.4222  153.6793  145.5571 H       1  UNL1        0.0266
     41 H         126.9665  152.7811  146.9779 H       1  UNL1        0.0266
     42 H         119.2251  153.5619  146.4214 H       1  UNL1        0.0326
     43 H         119.9146  154.8742  147.3504 H       1  UNL1        0.0326
     44 H         123.3024  153.3224  144.4461 H       1  UNL1        0.0560
     45 H         123.0110  154.9474  143.8371 H       1  UNL1        0.0560
     46 H         119.7291  151.9719  148.3656 H       1  UNL1        0.0814
     47 H         120.3086  153.3955  149.2852 H       1  UNL1        0.0814
     48 H         122.7624  151.2701  147.7994 H       1  UNL1        0.0636
     49 H         122.6016  148.9208  147.1273 H       1  UNL1        0.0619
     50 H         119.8683  150.0835  144.0445 H       1  UNL1        0.0829
     51 H         118.5103  153.3516  150.9268 H       1  UNL1        0.0873
     52 H         118.0664  151.7892  150.1973 H       1  UNL1        0.0873
     53 H         121.1447  148.2789  145.2071 H       1  UNL1        0.0633
     54 H         113.2869  152.4181  151.4476 H       1  UNL1        0.0659
     55 H         113.4467  154.9715  150.9156 H       1  UNL1        0.0694
     56 H         115.1912  149.1555  151.8395 H       1  UNL1        0.0660
     57 H         113.9068  150.0787  151.0464 H       1  UNL1        0.0660
     58 H         114.5027  150.5486  152.6853 H       1  UNL1        0.0660
@<TRIPOS>UNITY_ATOM_ATTR
5 1
charge 1
@<TRIPOS>BOND
     1     1    23   ar
     2     1    26   ar
     3     2     6    1
     4     2    15    1
     5     3    24    1
     6     3    27    1
     7     4    16   ar
     8     4    20   ar
     9     5    17    1
    10     5    21    1
    11     5    28    1
    12     5    29    1
    13     6     8    1
    14     6     9    1
    15     6    10    1
    16     7     8    1
    17     7    11    1
    18     7    14    1
    19     7    16    1
    20     8    30    1
    21     8    31    1
    22     9    12    1
    23     9    32    1
    24     9    33    1
    25    10    13    1
    26    10    34    1
    27    10    35    1
    28    11    15    1
    29    11    36    1
    30    11    37    1
    31    12    13    1
    32    12    38    1
    33    12    39    1
    34    13    40    1
    35    13    41    1
    36    14    17    1
    37    14    42    1
    38    14    43    1
    39    15    44    1
    40    15    45    1
    41    16    18   ar
    42    17    46    1
    43    17    47    1
    44    18    19   ar
    45    18    48    1
    46    19    22   ar
    47    19    49    1
    48    20    22   ar
    49    20    50    1
    50    21    23    1
    51    21    51    1
    52    21    52    1
    53    22    53    1
    54    23    24   ar
    55    24    25   ar
    56    25    26   ar
    57    25    54    1
    58    26    55    1
    59    27    56    1
    60    27    57    1
    61    27    58    1
@<TRIPOS>MOLECULE
66553195
 58 61 0 0 0
SMALL
GASTEIGER

@<TRIPOS>ATOM
      1 S         119.8033  154.5496  151.1617 S.2     1  UNL1       -0.0926
      2 O         124.0771  154.7113  145.6670 O.3     1  UNL1       -0.3733
      3 O         118.8525  157.9014  149.5123 O.3     1  UNL1       -0.4941
      4 N         121.1419  151.7329  144.8467 N.ar    1  UNL1       -0.2593
      5 N         118.3278  155.6088  147.6833 N.4     1  UNL1        0.2308
      6 C         123.9891  153.9974  146.9042 C.3     1  UNL1        0.0704
      7 C         121.4631  153.6163  146.3965 C.3     1  UNL1        0.0224
      8 C         122.5444  154.0328  147.4355 C.3     1  UNL1       -0.0124
      9 C         124.9378  154.7021  147.8894 C.3     1  UNL1       -0.0237
     10 C         124.6438  152.6139  146.8190 C.3     1  UNL1       -0.0237
     11 C         121.7568  154.4173  145.0969 C.3     1  UNL1       -0.0181
     12 C         126.3361  154.2341  147.4908 C.3     1  UNL1       -0.0504
     13 C         126.1419  152.9079  146.7604 C.3     1  UNL1       -0.0504
     14 C         120.0256  153.9372  146.9274 C.3     1  UNL1       -0.0013
     15 C         123.2003  154.2456  144.6446 C.3     1  UNL1        0.0492
     16 C         121.4409  152.1020  146.1162 C.ar    1  UNL1        0.0478
     17 C         119.6944  155.4168  147.1020 C.3     1  UNL1       -0.0325
     18 C         121.6093  151.1484  147.1224 C.ar    1  UNL1       -0.0398
     19 C         121.5333  149.7939  146.8016 C.ar    1  UNL1       -0.0586
     20 C         121.0827  150.4124  144.5580 C.ar    1  UNL1        0.0279
     21 C         118.0699  155.0859  149.0633 C.3     1  UNL1        0.0021
     22 C         121.2725  149.4148  145.4933 C.ar    1  UNL1       -0.0436
     23 C         119.0133  155.6206  150.0851 C.ar    1  UNL1        0.0756
     24 C         119.3748  156.9339  150.3117 C.ar    1  UNL1        0.1353
     25 C         120.3054  157.0560  151.3844 C.ar    1  UNL1       -0.0124
     26 C         120.6200  155.8328  151.9370 C.ar    1  UNL1       -0.0203
     27 C         119.2462  159.2292  149.8602 C.3     1  UNL1        0.0788
     28 H         117.6149  155.2413  147.0423 H       1  UNL1        0.2017
     29 H         118.1653  156.6255  147.7443 H       1  UNL1        0.2017
     30 H         122.3500  155.0756  147.7173 H       1  UNL1        0.0302
     31 H         122.4612  153.4641  148.3681 H       1  UNL1        0.0302
     32 H         124.7319  154.3903  148.9210 H       1  UNL1        0.0293
     33 H         124.8662  155.7939  147.8390 H       1  UNL1        0.0293
     34 H         124.3463  152.0230  145.9499 H       1  UNL1        0.0293
     35 H         124.4291  152.0292  147.7217 H       1  UNL1        0.0293
     36 H         121.6166  155.4876  145.2910 H       1  UNL1        0.0296
     37 H         121.0685  154.1545  144.2855 H       1  UNL1        0.0296
     38 H         126.9801  154.1244  148.3693 H       1  UNL1        0.0266
     39 H         126.8121  154.9625  146.8243 H       1  UNL1        0.0266
     40 H         126.4703  153.0063  145.7191 H       1  UNL1        0.0266
     41 H         126.7261  152.1013  147.2144 H       1  UNL1        0.0266
     42 H         119.8954  153.4152  147.8832 H       1  UNL1        0.0326
     43 H         119.2785  153.5060  146.2455 H       1  UNL1        0.0326
     44 H         123.4415  153.2173  144.3625 H       1  UNL1        0.0560
     45 H         123.3784  154.8661  143.7600 H       1  UNL1        0.0560
     46 H         120.4002  155.9431  147.7468 H       1  UNL1        0.0814
     47 H         119.6601  155.9308  146.1372 H       1  UNL1        0.0814
     48 H         121.8020  151.4242  148.1528 H       1  UNL1        0.0636
     49 H         121.6805  149.0382  147.5691 H       1  UNL1        0.0619
     50 H         120.8707  150.1721  143.5195 H       1  UNL1        0.0829
     51 H         118.0733  153.9936  148.9984 H       1  UNL1        0.0873
     52 H         117.0473  155.3942  149.3097 H       1  UNL1        0.0873
     53 H         121.2160  148.3693  145.2108 H       1  UNL1        0.0633
     54 H         120.7385  157.9785  151.7522 H       1  UNL1        0.0659
     55 H         121.2929  155.6337  152.7619 H       1  UNL1        0.0694
     56 H         118.7490  159.9157  149.1684 H       1  UNL1        0.0660
     57 H         120.3273  159.3604  149.7428 H       1  UNL1        0.0660
     58 H         118.9253  159.4832  150.8760 H       1  UNL1        0.0660
@<TRIPOS>UNITY_ATOM_ATTR
5 1
charge 1
@<TRIPOS>BOND
     1     1    23   ar
     2     1    26   ar
     3     2     6    1
     4     2    15    1
     5     3    24    1
     6     3    27    1
     7     4    16   ar
     8     4    20   ar
     9     5    17    1
    10     5    21    1
    11     5    28    1
    12     5    29    1
    13     6     8    1
    14     6     9    1
    15     6    10    1
    16     7     8    1
    17     7    11    1
    18     7    14    1
    19     7    16    1
    20     8    30    1
    21     8    31    1
    22     9    12    1
    23     9    32    1
    24     9    33    1
    25    10    13    1
    26    10    34    1
    27    10    35    1
    28    11    15    1
    29    11    36    1
    30    11    37    1
    31    12    13    1
    32    12    38    1
    33    12    39    1
    34    13    40    1
    35    13    41    1
    36    14    17    1
    37    14    42    1
    38    14    43    1
    39    15    44    1
    40    15    45    1
    41    16    18   ar
    42    17    46    1
    43    17    47    1
    44    18    19   ar
    45    18    48    1
    46    19    22   ar
    47    19    49    1
    48    20    22   ar
    49    20    50    1
    50    21    23    1
    51    21    51    1
    52    21    52    1
    53    22    53    1
    54    23    24   ar
    55    24    25   ar
    56    25    26   ar
    57    25    54    1
    58    26    55    1
    59    27    56    1
    60    27    57    1
    61    27    58    1
@<TRIPOS>MOLECULE
66553195
 58 61 0 0 0
SMALL
GASTEIGER

@<TRIPOS>ATOM
      1 S         119.7568  154.5754  151.0172 S.2     1  UNL1       -0.0926
      2 O         123.9064  154.7903  145.7482 O.3     1  UNL1       -0.3733
      3 O         118.1589  157.6187  149.2743 O.3     1  UNL1       -0.4941
      4 N         121.3611  151.5805  144.7570 N.ar    1  UNL1       -0.2593
      5 N         118.0412  155.1496  147.5642 N.4     1  UNL1        0.2308
      6 C         123.8343  154.0345  146.9613 C.3     1  UNL1        0.0704
      7 C         121.3717  153.4578  146.3509 C.3     1  UNL1        0.0224
      8 C         122.3738  153.9421  147.4387 C.3     1  UNL1       -0.0124
      9 C         124.6911  154.7796  147.9992 C.3     1  UNL1       -0.0237
     10 C         124.5961  152.7075  146.8627 C.3     1  UNL1       -0.0237
     11 C         121.6425  154.3075  145.0776 C.3     1  UNL1       -0.0181
     12 C         126.1345  154.4281  147.6430 C.3     1  UNL1       -0.0504
     13 C         126.0677  153.1164  146.8655 C.3     1  UNL1       -0.0504
     14 C         119.8944  153.6434  146.8344 C.3     1  UNL1       -0.0013
     15 C         123.1123  154.2814  144.6798 C.3     1  UNL1        0.0492
     16 C         121.4975  151.9520  146.0526 C.ar    1  UNL1        0.0478
     17 C         119.4148  155.0859  146.9709 C.3     1  UNL1       -0.0325
     18 C         121.6435  150.9995  147.0642 C.ar    1  UNL1       -0.0398
     19 C         121.7109  149.6486  146.7279 C.ar    1  UNL1       -0.0586
     20 C         121.4421  150.2643  144.4541 C.ar    1  UNL1        0.0279
     21 C         117.8712  154.6986  148.9833 C.3     1  UNL1        0.0021
     22 C         121.6168  149.2707  145.3969 C.ar    1  UNL1       -0.0436
     23 C         118.7443  155.4358  149.9389 C.ar    1  UNL1        0.0756
     24 C         118.8768  156.8016  150.0895 C.ar    1  UNL1        0.1353
     25 C         119.8154  157.1398  151.1070 C.ar    1  UNL1       -0.0124
     26 C         120.3660  156.0202  151.6938 C.ar    1  UNL1       -0.0203
     27 C         118.3037  159.0103  149.5593 C.3     1  UNL1        0.0788
     28 H         117.3710  154.6530  146.9656 H       1  UNL1        0.2017
     29 H         117.7526  156.1399  147.5596 H       1  UNL1        0.2017
     30 H         122.0810  154.9583  147.7330 H       1  UNL1        0.0302
     31 H         122.3061  153.3465  148.3557 H       1  UNL1        0.0302
     32 H         124.4722  154.4244  149.0140 H       1  UNL1        0.0293
     33 H         124.5394  155.8641  147.9741 H       1  UNL1        0.0293
     34 H         124.3752  152.1210  145.9683 H       1  UNL1        0.0293
     35 H         124.3960  152.0818  147.7410 H       1  UNL1        0.0293
     36 H         121.3962  155.3564  145.2834 H       1  UNL1        0.0296
     37 H         121.0131  153.9985  144.2351 H       1  UNL1        0.0296
     38 H         126.7506  154.3359  148.5433 H       1  UNL1        0.0266
     39 H         126.5808  155.2110  147.0192 H       1  UNL1        0.0266
     40 H         126.4207  153.2748  145.8397 H       1  UNL1        0.0266
     41 H         126.6978  152.3418  147.3139 H       1  UNL1        0.0266
     42 H         119.7853  153.1234  147.7937 H       1  UNL1        0.0326
     43 H         119.2140  153.1325  146.1378 H       1  UNL1        0.0326
     44 H         123.4573  153.2894  144.3768 H       1  UNL1        0.0560
     45 H         123.2656  154.9437  143.8211 H       1  UNL1        0.0560
     46 H         120.0692  155.7043  147.5877 H       1  UNL1        0.0814
     47 H         119.3175  155.5604  145.9898 H       1  UNL1        0.0814
     48 H         121.7093  151.2761  148.1104 H       1  UNL1        0.0636
     49 H         121.8404  148.8953  147.5009 H       1  UNL1        0.0619
     50 H         121.3594  150.0240  143.3974 H       1  UNL1        0.0829
     51 H         118.0246  153.6155  148.9998 H       1  UNL1        0.0873
     52 H         116.8187  154.8818  149.2281 H       1  UNL1        0.0873
     53 H         121.6758  148.2286  145.1022 H       1  UNL1        0.0633
     54 H         120.0938  158.1417  151.4114 H       1  UNL1        0.0659
     55 H         121.0996  155.9846  152.4898 H       1  UNL1        0.0694
     56 H         117.9836  159.2407  150.5810 H       1  UNL1        0.0660
     57 H         117.6544  159.5599  148.8713 H       1  UNL1        0.0660
     58 H         119.3333  159.3398  149.3839 H       1  UNL1        0.0660
@<TRIPOS>UNITY_ATOM_ATTR
5 1
charge 1
@<TRIPOS>BOND
     1     1    23   ar
     2     1    26   ar
     3     2     6    1
     4     2    15    1
     5     3    24    1
     6     3    27    1
     7     4    16   ar
     8     4    20   ar
     9     5    17    1
    10     5    21    1
    11     5    28    1
    12     5    29    1
    13     6     8    1
    14     6     9    1
    15     6    10    1
    16     7     8    1
    17     7    11    1
    18     7    14    1
    19     7    16    1
    20     8    30    1
    21     8    31    1
    22     9    12    1
    23     9    32    1
    24     9    33    1
    25    10    13    1
    26    10    34    1
    27    10    35    1
    28    11    15    1
    29    11    36    1
    30    11    37    1
    31    12    13    1
    32    12    38    1
    33    12    39    1
    34    13    40    1
    35    13    41    1
    36    14    17    1
    37    14    42    1
    38    14    43    1
    39    15    44    1
    40    15    45    1
    41    16    18   ar
    42    17    46    1
    43    17    47    1
    44    18    19   ar
    45    18    48    1
    46    19    22   ar
    47    19    49    1
    48    20    22   ar
    49    20    50    1
    50    21    23    1
    51    21    51    1
    52    21    52    1
    53    22    53    1
    54    23    24   ar
    55    24    25   ar
    56    25    26   ar
    57    25    54    1
    58    26    55    1
    59    27    56    1
    60    27    57    1
    61    27    58    1
@<TRIPOS>MOLECULE
66553195
 58 61 0 0 0
SMALL
GASTEIGER

@<TRIPOS>ATOM
      1 S         114.9637  152.6862  149.3610 S.2     1  UNL1       -0.0926
      2 O         123.8220  154.9222  145.8068 O.3     1  UNL1       -0.3733
      3 O         116.9254  153.9551  152.4267 O.3     1  UNL1       -0.4941
      4 N         120.5995  151.6653  145.2069 N.ar    1  UNL1       -0.2593
      5 N         118.2189  153.3303  148.8642 N.4     1  UNL1        0.2308
      6 C         123.9016  154.1642  147.0151 C.3     1  UNL1        0.0704
      7 C         121.3964  153.4883  146.6225 C.3     1  UNL1        0.0224
      8 C         122.4977  153.9499  147.6217 C.3     1  UNL1       -0.0124
      9 C         124.7847  154.9734  147.9827 C.3     1  UNL1       -0.0237
     10 C         124.7671  152.9118  146.8321 C.3     1  UNL1       -0.0237
     11 C         121.5342  154.3697  145.3468 C.3     1  UNL1       -0.0181
     12 C         126.2177  154.7456  147.5006 C.3     1  UNL1       -0.0504
     13 C         126.1877  153.4539  146.6885 C.3     1  UNL1       -0.0504
     14 C         119.9764  153.7889  147.2153 C.3     1  UNL1       -0.0013
     15 C         122.9556  154.3815  144.8169 C.3     1  UNL1        0.0492
     16 C         121.4115  152.0025  146.2396 C.ar    1  UNL1        0.0478
     17 C         119.5789  152.9210  148.4059 C.3     1  UNL1       -0.0325
     18 C         122.0915  151.0195  146.9567 C.ar    1  UNL1       -0.0398
     19 C         122.0032  149.6872  146.5525 C.ar    1  UNL1       -0.0586
     20 C         120.5457  150.3706  144.8169 C.ar    1  UNL1        0.0279
     21 C         117.6635  152.4898  149.9677 C.3     1  UNL1        0.0021
     22 C         121.2257  149.3539  145.4544 C.ar    1  UNL1       -0.0436
     23 C         116.3148  152.9676  150.3770 C.ar    1  UNL1        0.0756
     24 C         115.9601  153.6442  151.5253 C.ar    1  UNL1        0.1353
     25 C         114.5645  153.9310  151.5693 C.ar    1  UNL1       -0.0124
     26 C         113.9046  153.4617  150.4536 C.ar    1  UNL1       -0.0203
     27 C         116.4395  154.4771  153.6619 C.3     1  UNL1        0.0788
     28 H         117.5552  153.2871  148.0786 H       1  UNL1        0.2017
     29 H         118.2198  154.3087  149.1807 H       1  UNL1        0.2017
     30 H         122.1780  154.9297  148.0080 H       1  UNL1        0.0302
     31 H         122.5528  153.3011  148.5028 H       1  UNL1        0.0302
     32 H         124.6843  154.5980  149.0088 H       1  UNL1        0.0293
     33 H         124.5430  156.0417  147.9820 H       1  UNL1        0.0293
     34 H         124.5081  152.3065  145.9605 H       1  UNL1        0.0293
     35 H         124.7236  152.2759  147.7239 H       1  UNL1        0.0293
     36 H         121.2646  155.4036  145.6050 H       1  UNL1        0.0296
     37 H         120.8456  154.0608  144.5518 H       1  UNL1        0.0296
     38 H         126.9086  154.6757  148.3472 H       1  UNL1        0.0266
     39 H         126.5534  155.5773  146.8711 H       1  UNL1        0.0266
     40 H         126.4080  153.6703  145.6366 H       1  UNL1        0.0266
     41 H         126.9315  152.7313  147.0385 H       1  UNL1        0.0266
     42 H         119.2185  153.6634  146.4284 H       1  UNL1        0.0326
     43 H         119.9221  154.8463  147.5092 H       1  UNL1        0.0326
     44 H         123.2921  153.3910  144.4970 H       1  UNL1        0.0560
     45 H         123.0137  155.0371  143.9418 H       1  UNL1        0.0560
     46 H         119.5112  151.8620  148.1429 H       1  UNL1        0.0814
     47 H         120.2568  153.0549  149.2540 H       1  UNL1        0.0814
     48 H         122.6988  151.2442  147.8245 H       1  UNL1        0.0636
     49 H         122.5508  148.9139  147.0865 H       1  UNL1        0.0619
     50 H         119.9212  150.1698  143.9502 H       1  UNL1        0.0829
     51 H         118.3792  152.5392  150.7951 H       1  UNL1        0.0873
     52 H         117.6258  151.4570  149.6035 H       1  UNL1        0.0873
     53 H         121.1543  148.3298  145.1039 H       1  UNL1        0.0633
     54 H         114.0468  154.4524  152.3656 H       1  UNL1        0.0659
     55 H         112.8476  153.5386  150.2308 H       1  UNL1        0.0694
     56 H         117.2986  154.6233  154.3235 H       1  UNL1        0.0660
     57 H         115.7576  153.7715  154.1490 H       1  UNL1        0.0660
     58 H         115.9598  155.4503  153.5148 H       1  UNL1        0.0660
@<TRIPOS>UNITY_ATOM_ATTR
5 1
charge 1
@<TRIPOS>BOND
     1     1    23   ar
     2     1    26   ar
     3     2     6    1
     4     2    15    1
     5     3    24    1
     6     3    27    1
     7     4    16   ar
     8     4    20   ar
     9     5    17    1
    10     5    21    1
    11     5    28    1
    12     5    29    1
    13     6     8    1
    14     6     9    1
    15     6    10    1
    16     7     8    1
    17     7    11    1
    18     7    14    1
    19     7    16    1
    20     8    30    1
    21     8    31    1
    22     9    12    1
    23     9    32    1
    24     9    33    1
    25    10    13    1
    26    10    34    1
    27    10    35    1
    28    11    15    1
    29    11    36    1
    30    11    37    1
    31    12    13    1
    32    12    38    1
    33    12    39    1
    34    13    40    1
    35    13    41    1
    36    14    17    1
    37    14    42    1
    38    14    43    1
    39    15    44    1
    40    15    45    1
    41    16    18   ar
    42    17    46    1
    43    17    47    1
    44    18    19   ar
    45    18    48    1
    46    19    22   ar
    47    19    49    1
    48    20    22   ar
    49    20    50    1
    50    21    23    1
    51    21    51    1
    52    21    52    1
    53    22    53    1
    54    23    24   ar
    55    24    25   ar
    56    25    26   ar
    57    25    54    1
    58    26    55    1
    59    27    56    1
    60    27    57    1
    61    27    58    1
@<TRIPOS>MOLECULE
66553195
 58 61 0 0 0
SMALL
GASTEIGER

@<TRIPOS>ATOM
      1 S         114.6707  156.5547  146.1468 S.2     1  UNL1       -0.0926
      2 O         123.8873  154.8721  145.7354 O.3     1  UNL1       -0.3733
      3 O         116.1085  154.5691  149.1220 O.3     1  UNL1       -0.4941
      4 N         120.9901  151.6606  144.9078 N.ar    1  UNL1       -0.2593
      5 N         117.4818  153.8930  146.6274 N.4     1  UNL1        0.2308
      6 C         123.8559  154.1394  146.9633 C.3     1  UNL1        0.0704
      7 C         121.3691  153.5367  146.4346 C.3     1  UNL1        0.0224
      8 C         122.4115  154.0313  147.4827 C.3     1  UNL1       -0.0124
      9 C         124.7306  154.9155  147.9630 C.3     1  UNL1       -0.0237
     10 C         124.6380  152.8246  146.8625 C.3     1  UNL1       -0.0237
     11 C         121.6029  154.3789  145.1471 C.3     1  UNL1       -0.0181
     12 C         126.1697  154.5792  147.5736 C.3     1  UNL1       -0.0504
     13 C         126.1003  153.2624  146.8045 C.3     1  UNL1       -0.0504
     14 C         119.9387  153.8355  146.9946 C.3     1  UNL1       -0.0013
     15 C         123.0584  154.3483  144.7062 C.3     1  UNL1        0.0492
     16 C         121.4300  152.0340  146.1372 C.ar    1  UNL1        0.0478
     17 C         118.7876  153.4407  146.0625 C.3     1  UNL1       -0.0325
     18 C         121.7913  151.0818  147.0895 C.ar    1  UNL1       -0.0398
     19 C         121.7810  149.7307  146.7449 C.ar    1  UNL1       -0.0586
     20 C         121.0088  150.3443  144.5905 C.ar    1  UNL1        0.0279
     21 C         117.1468  155.3402  146.4630 C.3     1  UNL1        0.0021
     22 C         121.3931  149.3515  145.4687 C.ar    1  UNL1       -0.0436
     23 C         115.8098  155.6486  147.0466 C.ar    1  UNL1        0.0756
     24 C         115.3229  155.3075  148.2931 C.ar    1  UNL1        0.1353
     25 C         113.9998  155.7936  148.5040 C.ar    1  UNL1       -0.0124
     26 C         113.5274  156.4925  147.4137 C.ar    1  UNL1       -0.0203
     27 C         115.5876  154.4170  150.4431 C.3     1  UNL1        0.0788
     28 H         117.4082  153.6683  147.6316 H       1  UNL1        0.2017
     29 H         116.7259  153.3578  146.1821 H       1  UNL1        0.2017
     30 H         122.1090  155.0482  147.7763 H       1  UNL1        0.0302
     31 H         122.3747  153.4463  148.4083 H       1  UNL1        0.0302
     32 H         124.5453  154.5762  148.9897 H       1  UNL1        0.0293
     33 H         124.5618  155.9969  147.9223 H       1  UNL1        0.0293
     34 H         124.3946  152.2179  145.9874 H       1  UNL1        0.0293
     35 H         124.4839  152.2131  147.7596 H       1  UNL1        0.0293
     36 H         121.3352  155.4231  145.3604 H       1  UNL1        0.0296
     37 H         120.9702  154.0612  144.3117 H       1  UNL1        0.0296
     38 H         126.8069  154.4982  148.4602 H       1  UNL1        0.0266
     39 H         126.5927  155.3641  146.9365 H       1  UNL1        0.0266
     40 H         126.4080  153.4236  145.7647 H       1  UNL1        0.0266
     41 H         126.7644  152.5036  147.2300 H       1  UNL1        0.0266
     42 H         119.8727  154.9062  147.2228 H       1  UNL1        0.0326
     43 H         119.8056  153.3144  147.9532 H       1  UNL1        0.0326
     44 H         123.3858  153.3468  144.4125 H       1  UNL1        0.0560
     45 H         123.1848  154.9922  143.8295 H       1  UNL1        0.0560
     46 H         118.8676  153.8707  145.0610 H       1  UNL1        0.0814
     47 H         118.6971  152.3542  145.9815 H       1  UNL1        0.0814
     48 H         122.0941  151.3523  148.0948 H       1  UNL1        0.0636
     49 H         122.0861  148.9780  147.4683 H       1  UNL1        0.0619
     50 H         120.6956  150.1026  143.5781 H       1  UNL1        0.0829
     51 H         117.1941  155.5546  145.3902 H       1  UNL1        0.0873
     52 H         117.9178  155.9208  146.9784 H       1  UNL1        0.0873
     53 H         121.3926  148.3093  145.1676 H       1  UNL1        0.0633
     54 H         113.4021  155.6530  149.3966 H       1  UNL1        0.0659
     55 H         112.5621  156.9704  147.3020 H       1  UNL1        0.0694
     56 H         116.3272  153.8646  151.0306 H       1  UNL1        0.0660
     57 H         114.6619  153.8320  150.4338 H       1  UNL1        0.0660
     58 H         115.4355  155.3898  150.9231 H       1  UNL1        0.0660
@<TRIPOS>UNITY_ATOM_ATTR
5 1
charge 1
@<TRIPOS>BOND
     1     1    23   ar
     2     1    26   ar
     3     2     6    1
     4     2    15    1
     5     3    24    1
     6     3    27    1
     7     4    16   ar
     8     4    20   ar
     9     5    17    1
    10     5    21    1
    11     5    28    1
    12     5    29    1
    13     6     8    1
    14     6     9    1
    15     6    10    1
    16     7     8    1
    17     7    11    1
    18     7    14    1
    19     7    16    1
    20     8    30    1
    21     8    31    1
    22     9    12    1
    23     9    32    1
    24     9    33    1
    25    10    13    1
    26    10    34    1
    27    10    35    1
    28    11    15    1
    29    11    36    1
    30    11    37    1
    31    12    13    1
    32    12    38    1
    33    12    39    1
    34    13    40    1
    35    13    41    1
    36    14    17    1
    37    14    42    1
    38    14    43    1
    39    15    44    1
    40    15    45    1
    41    16    18   ar
    42    17    46    1
    43    17    47    1
    44    18    19   ar
    45    18    48    1
    46    19    22   ar
    47    19    49    1
    48    20    22   ar
    49    20    50    1
    50    21    23    1
    51    21    51    1
    52    21    52    1
    53    22    53    1
    54    23    24   ar
    55    24    25   ar
    56    25    26   ar
    57    25    54    1
    58    26    55    1
    59    27    56    1
    60    27    57    1
    61    27    58    1
@<TRIPOS>MOLECULE
66553195
 58 61 0 0 0
SMALL
GASTEIGER

@<TRIPOS>ATOM
      1 S         114.8471  154.0393  147.6170 S.2     1  UNL1       -0.0926
      2 O         124.0136  154.9850  145.8470 O.3     1  UNL1       -0.3733
      3 O         114.0280  153.2663  143.9333 O.3     1  UNL1       -0.4941
      4 N         121.2173  151.2998  147.1322 N.ar    1  UNL1       -0.2593
      5 N         117.5987  153.6712  146.2499 N.4     1  UNL1        0.2308
      6 C         123.8877  154.1621  147.0110 C.3     1  UNL1        0.0704
      7 C         121.4880  153.5448  146.2196 C.3     1  UNL1        0.0224
      8 C         122.4074  154.0228  147.3824 C.3     1  UNL1       -0.0124
      9 C         124.6648  154.8611  148.1386 C.3     1  UNL1       -0.0237
     10 C         124.6720  152.8497  146.8915 C.3     1  UNL1       -0.0237
     11 C         121.8261  154.3904  144.9654 C.3     1  UNL1       -0.0181
     12 C         126.1322  154.5532  147.8487 C.3     1  UNL1       -0.0504
     13 C         126.1357  153.2661  147.0285 C.3     1  UNL1       -0.0504
     14 C         120.0108  153.8505  146.6559 C.3     1  UNL1       -0.0013
     15 C         123.3242  154.5131  144.7001 C.3     1  UNL1        0.0492
     16 C         121.6051  152.0254  146.0510 C.ar    1  UNL1        0.0478
     17 C         118.9397  153.2493  145.7484 C.3     1  UNL1       -0.0325
     18 C         121.9940  151.3953  144.8700 C.ar    1  UNL1       -0.0398
     19 C         122.0460  150.0022  144.8214 C.ar    1  UNL1       -0.0586
     20 C         121.2988  149.9503  147.0684 C.ar    1  UNL1        0.0279
     21 C         116.4478  153.0048  145.5673 C.3     1  UNL1        0.0021
     22 C         121.7020  149.2625  145.9425 C.ar    1  UNL1       -0.0436
     23 C         115.1224  153.5370  146.0005 C.ar    1  UNL1        0.0756
     24 C         113.9814  153.6552  145.2325 C.ar    1  UNL1        0.1353
     25 C         112.8890  154.2001  145.9678 C.ar    1  UNL1       -0.0124
     26 C         113.2273  154.4595  147.2785 C.ar    1  UNL1       -0.0203
     27 C         112.7732  153.2897  143.2573 C.3     1  UNL1        0.0788
     28 H         117.4814  154.6883  146.1610 H       1  UNL1        0.2017
     29 H         117.5167  153.4656  147.2549 H       1  UNL1        0.2017
     30 H         122.0580  155.0210  147.6864 H       1  UNL1        0.0302
     31 H         122.2969  153.3850  148.2689 H       1  UNL1        0.0302
     32 H         124.3942  154.4446  149.1168 H       1  UNL1        0.0293
     33 H         124.4941  155.9426  148.1649 H       1  UNL1        0.0293
     34 H         124.5286  152.3163  145.9503 H       1  UNL1        0.0293
     35 H         124.4107  152.1687  147.7109 H       1  UNL1        0.0293
     36 H         121.4520  155.4107  145.1296 H       1  UNL1        0.0296
     37 H         121.3150  154.0196  144.0700 H       1  UNL1        0.0296
     38 H         126.7053  154.4473  148.7755 H       1  UNL1        0.0266
     39 H         126.5894  155.3650  147.2715 H       1  UNL1        0.0266
     40 H         126.5723  153.4565  146.0411 H       1  UNL1        0.0266
     41 H         126.7306  152.4798  147.5040 H       1  UNL1        0.0266
     42 H         119.8664  154.9382  146.7154 H       1  UNL1        0.0326
     43 H         119.8447  153.4794  147.6777 H       1  UNL1        0.0326
     44 H         123.7710  153.5797  144.3510 H       1  UNL1        0.0560
     45 H         123.4853  155.2454  143.9014 H       1  UNL1        0.0560
     46 H         119.0228  153.6110  144.7194 H       1  UNL1        0.0814
     47 H         118.9476  152.1562  145.7612 H       1  UNL1        0.0814
     48 H         122.2761  151.9428  143.9785 H       1  UNL1        0.0636
     49 H         122.3708  149.4973  143.9143 H       1  UNL1        0.0619
     50 H         121.0235  149.4218  147.9775 H       1  UNL1        0.0829
     51 H         116.5188  151.9341  145.7882 H       1  UNL1        0.0873
     52 H         116.5969  153.1585  144.4930 H       1  UNL1        0.0873
     53 H         121.7540  148.1789  145.9392 H       1  UNL1        0.0633
     54 H         111.8966  154.3966  145.5803 H       1  UNL1        0.0659
     55 H         112.5922  154.8686  148.0545 H       1  UNL1        0.0694
     56 H         112.9323  152.9054  142.2452 H       1  UNL1        0.0660
     57 H         112.3924  154.3128  143.1720 H       1  UNL1        0.0660
     58 H         112.0448  152.6381  143.7521 H       1  UNL1        0.0660
@<TRIPOS>UNITY_ATOM_ATTR
5 1
charge 1
@<TRIPOS>BOND
     1     1    23   ar
     2     1    26   ar
     3     2     6    1
     4     2    15    1
     5     3    24    1
     6     3    27    1
     7     4    16   ar
     8     4    20   ar
     9     5    17    1
    10     5    21    1
    11     5    28    1
    12     5    29    1
    13     6     8    1
    14     6     9    1
    15     6    10    1
    16     7     8    1
    17     7    11    1
    18     7    14    1
    19     7    16    1
    20     8    30    1
    21     8    31    1
    22     9    12    1
    23     9    32    1
    24     9    33    1
    25    10    13    1
    26    10    34    1
    27    10    35    1
    28    11    15    1
    29    11    36    1
    30    11    37    1
    31    12    13    1
    32    12    38    1
    33    12    39    1
    34    13    40    1
    35    13    41    1
    36    14    17    1
    37    14    42    1
    38    14    43    1
    39    15    44    1
    40    15    45    1
    41    16    18   ar
    42    17    46    1
    43    17    47    1
    44    18    19   ar
    45    18    48    1
    46    19    22   ar
    47    19    49    1
    48    20    22   ar
    49    20    50    1
    50    21    23    1
    51    21    51    1
    52    21    52    1
    53    22    53    1
    54    23    24   ar
    55    24    25   ar
    56    25    26   ar
    57    25    54    1
    58    26    55    1
    59    27    56    1
    60    27    57    1
    61    27    58    1
@<TRIPOS>MOLECULE
66553195
 58 61 0 0 0
SMALL
GASTEIGER

@<TRIPOS>ATOM
      1 S         115.8748  152.5440  149.3140 S.2     1  UNL1       -0.0926
      2 O         123.9420  155.1354  146.0323 O.3     1  UNL1       -0.3733
      3 O         115.8554  151.5133  145.5964 O.3     1  UNL1       -0.4941
      4 N         121.2935  151.0929  146.8099 N.ar    1  UNL1       -0.2593
      5 N         118.5884  151.8192  146.4962 N.4     1  UNL1        0.2308
      6 C         123.9966  154.0879  147.0032 C.3     1  UNL1        0.0704
      7 C         121.5270  153.5009  146.3853 C.3     1  UNL1        0.0224
      8 C         122.5833  153.7714  147.4998 C.3     1  UNL1       -0.0124
      9 C         124.8693  154.5995  148.1617 C.3     1  UNL1       -0.0237
     10 C         124.8211  152.8852  146.5301 C.3     1  UNL1       -0.0237
     11 C         121.6911  154.5841  145.2850 C.3     1  UNL1       -0.0181
     12 C         126.3015  154.4715  147.6510 C.3     1  UNL1       -0.0504
     13 C         126.2736  153.3554  146.6108 C.3     1  UNL1       -0.0504
     14 C         120.1231  153.6962  147.0745 C.3     1  UNL1       -0.0013
     15 C         123.1410  154.8622  144.8945 C.3     1  UNL1        0.0492
     16 C         121.6507  152.0472  145.9013 C.ar    1  UNL1        0.0478
     17 C         118.8970  153.2595  146.2736 C.3     1  UNL1       -0.0325
     18 C         122.0471  151.6804  144.6176 C.ar    1  UNL1       -0.0398
     19 C         122.1939  150.3291  144.3000 C.ar    1  UNL1       -0.0586
     20 C         121.5142  149.7886  146.4996 C.ar    1  UNL1        0.0279
     21 C         117.8924  151.4512  147.7642 C.3     1  UNL1        0.0021
     22 C         121.9481  149.3634  145.2630 C.ar    1  UNL1       -0.0436
     23 C         116.4835  151.9350  147.8331 C.ar    1  UNL1        0.0756
     24 C         115.5234  151.9535  146.8398 C.ar    1  UNL1        0.1353
     25 C         114.2803  152.4739  147.3063 C.ar    1  UNL1       -0.0124
     26 C         114.3349  152.8301  148.6365 C.ar    1  UNL1       -0.0203
     27 C         114.7748  151.5170  144.6630 C.3     1  UNL1        0.0788
     28 H         119.4712  151.2816  146.4697 H       1  UNL1        0.2017
     29 H         118.0000  151.4715  145.7268 H       1  UNL1        0.2017
     30 H         122.2442  154.6551  148.0617 H       1  UNL1        0.0302
     31 H         122.6113  152.9489  148.2267 H       1  UNL1        0.0302
     32 H         124.7440  153.9724  149.0532 H       1  UNL1        0.0293
     33 H         124.6470  155.6366  148.4346 H       1  UNL1        0.0293
     34 H         124.5998  152.5520  145.5150 H       1  UNL1        0.0293
     35 H         124.6798  152.0321  147.2054 H       1  UNL1        0.0293
     36 H         121.2926  155.5318  145.6728 H       1  UNL1        0.0296
     37 H         121.0999  154.3500  144.3924 H       1  UNL1        0.0296
     38 H         126.9976  154.2533  148.4672 H       1  UNL1        0.0266
     39 H         126.6270  155.4082  147.1839 H       1  UNL1        0.0266
     40 H         126.6055  153.7429  145.6406 H       1  UNL1        0.0266
     41 H         126.9415  152.5311  146.8805 H       1  UNL1        0.0266
     42 H         119.9994  154.7644  147.3015 H       1  UNL1        0.0326
     43 H         120.1233  153.2028  148.0547 H       1  UNL1        0.0326
     44 H         123.5891  154.0573  144.3090 H       1  UNL1        0.0560
     45 H         123.1716  155.7518  144.2557 H       1  UNL1        0.0560
     46 H         118.0131  153.8357  146.5631 H       1  UNL1        0.0814
     47 H         119.0452  153.3871  145.1973 H       1  UNL1        0.0814
     48 H         122.2792  152.4040  143.8451 H       1  UNL1        0.0636
     49 H         122.5370  150.0355  143.3095 H       1  UNL1        0.0619
     50 H         121.3185  149.0749  147.2968 H       1  UNL1        0.0829
     51 H         118.5083  151.8118  148.5932 H       1  UNL1        0.0873
     52 H         117.8994  150.3556  147.7974 H       1  UNL1        0.0873
     53 H         122.1019  148.3095  145.0537 H       1  UNL1        0.0633
     54 H         113.3765  152.5903  146.7204 H       1  UNL1        0.0659
     55 H         113.5399  153.2449  149.2437 H       1  UNL1        0.0694
     56 H         115.1538  151.1272  143.7135 H       1  UNL1        0.0660
     57 H         114.4131  152.5356  144.4858 H       1  UNL1        0.0660
     58 H         113.9630  150.8617  144.9960 H       1  UNL1        0.0660
@<TRIPOS>UNITY_ATOM_ATTR
5 1
charge 1
@<TRIPOS>BOND
     1     1    23   ar
     2     1    26   ar
     3     2     6    1
     4     2    15    1
     5     3    24    1
     6     3    27    1
     7     4    16   ar
     8     4    20   ar
     9     5    17    1
    10     5    21    1
    11     5    28    1
    12     5    29    1
    13     6     8    1
    14     6     9    1
    15     6    10    1
    16     7     8    1
    17     7    11    1
    18     7    14    1
    19     7    16    1
    20     8    30    1
    21     8    31    1
    22     9    12    1
    23     9    32    1
    24     9    33    1
    25    10    13    1
    26    10    34    1
    27    10    35    1
    28    11    15    1
    29    11    36    1
    30    11    37    1
    31    12    13    1
    32    12    38    1
    33    12    39    1
    34    13    40    1
    35    13    41    1
    36    14    17    1
    37    14    42    1
    38    14    43    1
    39    15    44    1
    40    15    45    1
    41    16    18   ar
    42    17    46    1
    43    17    47    1
    44    18    19   ar
    45    18    48    1
    46    19    22   ar
    47    19    49    1
    48    20    22   ar
    49    20    50    1
    50    21    23    1
    51    21    51    1
    52    21    52    1
    53    22    53    1
    54    23    24   ar
    55    24    25   ar
    56    25    26   ar
    57    25    54    1
    58    26    55    1
    59    27    56    1
    60    27    57    1
    61    27    58    1
@<TRIPOS>MOLECULE
66553195
 58 61 0 0 0
SMALL
GASTEIGER

@<TRIPOS>ATOM
      1 S         115.9487  152.8140  149.1780 S.2     1  UNL1       -0.0926
      2 O         123.8368  155.1105  145.8288 O.3     1  UNL1       -0.3733
      3 O         115.8920  150.4281  146.1513 O.3     1  UNL1       -0.4941
      4 N         121.3970  151.0563  146.9073 N.ar    1  UNL1       -0.2593
      5 N         118.6527  151.5828  146.6806 N.4     1  UNL1        0.2308
      6 C         123.9142  154.1440  146.8789 C.3     1  UNL1        0.0704
      7 C         121.4676  153.4370  146.3029 C.3     1  UNL1        0.0224
      8 C         122.5073  153.8316  147.3961 C.3     1  UNL1       -0.0124
      9 C         124.7690  154.7643  147.9968 C.3     1  UNL1       -0.0237
     10 C         124.7695  152.9288  146.5012 C.3     1  UNL1       -0.0237
     11 C         121.5970  154.4504  145.1338 C.3     1  UNL1       -0.0181
     12 C         126.2071  154.6282  147.5054 C.3     1  UNL1       -0.0504
     13 C         126.2099  153.4380  146.5506 C.3     1  UNL1       -0.0504
     14 C         120.0533  153.6196  146.9725 C.3     1  UNL1       -0.0013
     15 C         123.0395  154.7331  144.7175 C.3     1  UNL1        0.0492
     16 C         121.6588  151.9610  145.9186 C.ar    1  UNL1        0.0478
     17 C         118.8606  152.9945  146.2479 C.3     1  UNL1       -0.0325
     18 C         122.0194  151.5267  144.6450 C.ar    1  UNL1       -0.0398
     19 C         122.2315  150.1669  144.4138 C.ar    1  UNL1       -0.0586
     20 C         121.6822  149.7477  146.6761 C.ar    1  UNL1        0.0279
     21 C         117.9967  151.3560  148.0023 C.3     1  UNL1        0.0021
     22 C         122.0859  149.2604  145.4518 C.ar    1  UNL1       -0.0436
     23 C         116.5541  151.7262  148.0038 C.ar    1  UNL1        0.0756
     24 C         115.5609  151.2840  147.1537 C.ar    1  UNL1        0.1353
     25 C         114.2912  151.8469  147.4740 C.ar    1  UNL1       -0.0124
     26 C         114.3618  152.6952  148.5586 C.ar    1  UNL1       -0.0203
     27 C         114.7720  149.8581  145.4736 C.3     1  UNL1        0.0788
     28 H         119.5743  151.1133  146.7165 H       1  UNL1        0.2017
     29 H         118.0940  151.0774  145.9801 H       1  UNL1        0.2017
     30 H         122.1382  154.7490  147.8796 H       1  UNL1        0.0302
     31 H         122.5544  153.0743  148.1897 H       1  UNL1        0.0302
     32 H         124.6518  154.2068  148.9345 H       1  UNL1        0.0293
     33 H         124.5224  155.8145  148.1865 H       1  UNL1        0.0293
     34 H         124.5610  152.5149  145.5133 H       1  UNL1        0.0293
     35 H         124.6450  152.1263  147.2388 H       1  UNL1        0.0293
     36 H         121.1802  155.4124  145.4630 H       1  UNL1        0.0296
     37 H         121.0038  154.1459  144.2641 H       1  UNL1        0.0296
     38 H         126.9009  154.4847  148.3399 H       1  UNL1        0.0266
     39 H         126.5179  155.5343  146.9726 H       1  UNL1        0.0266
     40 H         126.5368  153.7605  145.5553 H       1  UNL1        0.0266
     41 H         126.8959  152.6519  146.8822 H       1  UNL1        0.0266
     42 H         119.8530  154.6958  147.0679 H       1  UNL1        0.0326
     43 H         120.0914  153.2536  148.0061 H       1  UNL1        0.0326
     44 H         123.5053  153.8962  144.1935 H       1  UNL1        0.0560
     45 H         123.0477  155.5726  144.0136 H       1  UNL1        0.0560
     46 H         117.9376  153.5431  146.4577 H       1  UNL1        0.0814
     47 H         119.0046  152.9768  145.1633 H       1  UNL1        0.0814
     48 H         122.1740  152.2058  143.8144 H       1  UNL1        0.0636
     49 H         122.5470  149.8232  143.4303 H       1  UNL1        0.0619
     50 H         121.5643  149.0820  147.5282 H       1  UNL1        0.0829
     51 H         118.5794  151.8862  148.7608 H       1  UNL1        0.0873
     52 H         118.0972  150.2829  148.2025 H       1  UNL1        0.0873
     53 H         122.2922  148.2046  145.3080 H       1  UNL1        0.0633
     54 H         113.3600  151.6582  146.9539 H       1  UNL1        0.0659
     55 H         113.5539  153.2518  149.0169 H       1  UNL1        0.0694
     56 H         115.1548  149.1345  144.7478 H       1  UNL1        0.0660
     57 H         114.2167  150.6243  144.9227 H       1  UNL1        0.0660
     58 H         114.1185  149.3217  146.1703 H       1  UNL1        0.0660
@<TRIPOS>UNITY_ATOM_ATTR
5 1
charge 1
@<TRIPOS>BOND
     1     1    23   ar
     2     1    26   ar
     3     2     6    1
     4     2    15    1
     5     3    24    1
     6     3    27    1
     7     4    16   ar
     8     4    20   ar
     9     5    17    1
    10     5    21    1
    11     5    28    1
    12     5    29    1
    13     6     8    1
    14     6     9    1
    15     6    10    1
    16     7     8    1
    17     7    11    1
    18     7    14    1
    19     7    16    1
    20     8    30    1
    21     8    31    1
    22     9    12    1
    23     9    32    1
    24     9    33    1
    25    10    13    1
    26    10    34    1
    27    10    35    1
    28    11    15    1
    29    11    36    1
    30    11    37    1
    31    12    13    1
    32    12    38    1
    33    12    39    1
    34    13    40    1
    35    13    41    1
    36    14    17    1
    37    14    42    1
    38    14    43    1
    39    15    44    1
    40    15    45    1
    41    16    18   ar
    42    17    46    1
    43    17    47    1
    44    18    19   ar
    45    18    48    1
    46    19    22   ar
    47    19    49    1
    48    20    22   ar
    49    20    50    1
    50    21    23    1
    51    21    51    1
    52    21    52    1
    53    22    53    1
    54    23    24   ar
    55    24    25   ar
    56    25    26   ar
    57    25    54    1
    58    26    55    1
    59    27    56    1
    60    27    57    1
    61    27    58    1
@<TRIPOS>MOLECULE
66553195
 58 61 0 0 0
SMALL
GASTEIGER

@<TRIPOS>ATOM
      1 S         113.6022  152.5783  145.9670 S.2     1  UNL1       -0.0926
      2 O         123.8111  155.0219  145.8618 O.3     1  UNL1       -0.3733
      3 O         115.5995  155.6692  147.1213 O.3     1  UNL1       -0.4941
      4 N         121.0082  151.2864  147.0104 N.ar    1  UNL1       -0.2593
      5 N         117.4062  153.6239  146.3300 N.4     1  UNL1        0.2308
      6 C         123.7000  154.1458  146.9880 C.3     1  UNL1        0.0704
      7 C         121.2881  153.5708  146.2015 C.3     1  UNL1        0.0224
      8 C         122.2251  153.9894  147.3732 C.3     1  UNL1       -0.0124
      9 C         124.4935  154.7926  148.1351 C.3     1  UNL1       -0.0237
     10 C         124.4811  152.8399  146.7979 C.3     1  UNL1       -0.0237
     11 C         121.6113  154.4717  144.9832 C.3     1  UNL1       -0.0181
     12 C         125.9560  154.5011  147.8072 C.3     1  UNL1       -0.0504
     13 C         125.9473  153.2466  146.9380 C.3     1  UNL1       -0.0504
     14 C         119.8189  153.8555  146.6745 C.3     1  UNL1       -0.0013
     15 C         123.1059  154.6044  144.7038 C.3     1  UNL1        0.0492
     16 C         121.3943  152.0593  145.9615 C.ar    1  UNL1        0.0478
     17 C         118.7366  153.3952  145.7010 C.3     1  UNL1       -0.0325
     18 C         121.7764  151.4816  144.7521 C.ar    1  UNL1       -0.0398
     19 C         121.8232  150.0917  144.6409 C.ar    1  UNL1       -0.0586
     20 C         121.0844  149.9410  146.8859 C.ar    1  UNL1        0.0279
     21 C         116.2354  153.2865  145.4684 C.3     1  UNL1        0.0021
     22 C         121.4810  149.3033  145.7289 C.ar    1  UNL1       -0.0436
     23 C         114.9452  153.6276  146.1341 C.ar    1  UNL1        0.0756
     24 C         114.6321  154.7411  146.8903 C.ar    1  UNL1        0.1353
     25 C         113.2785  154.7233  147.3369 C.ar    1  UNL1       -0.0124
     26 C         112.6059  153.6017  146.9022 C.ar    1  UNL1       -0.0203
     27 C         115.1516  156.8213  147.8372 C.3     1  UNL1        0.0788
     28 H         117.2920  154.6091  146.6166 H       1  UNL1        0.2017
     29 H         117.3305  153.0795  147.1992 H       1  UNL1        0.2017
     30 H         121.8827  154.9721  147.7309 H       1  UNL1        0.0302
     31 H         122.1257  153.3092  148.2289 H       1  UNL1        0.0302
     32 H         124.2385  154.3304  149.0969 H       1  UNL1        0.0293
     33 H         124.3223  155.8715  148.2143 H       1  UNL1        0.0293
     34 H         124.3256  152.3512  145.8346 H       1  UNL1        0.0293
     35 H         124.2278  152.1215  147.5875 H       1  UNL1        0.0293
     36 H         121.2398  155.4834  145.1987 H       1  UNL1        0.0296
     37 H         121.0890  154.1414  144.0784 H       1  UNL1        0.0296
     38 H         126.5469  154.3623  148.7182 H       1  UNL1        0.0266
     39 H         126.3997  155.3360  147.2527 H       1  UNL1        0.0266
     40 H         126.3766  153.4730  145.9550 H       1  UNL1        0.0266
     41 H         126.5430  152.4406  147.3782 H       1  UNL1        0.0266
     42 H         119.6962  154.9328  146.8544 H       1  UNL1        0.0326
     43 H         119.6455  153.3779  147.6495 H       1  UNL1        0.0326
     44 H         123.5463  153.6875  144.3062 H       1  UNL1        0.0560
     45 H         123.2578  155.3723  143.9373 H       1  UNL1        0.0560
     46 H         118.7605  153.9744  144.7730 H       1  UNL1        0.0814
     47 H         118.7906  152.3275  145.4737 H       1  UNL1        0.0814
     48 H         122.0570  152.0674  143.8849 H       1  UNL1        0.0636
     49 H         122.1426  149.6268  143.7108 H       1  UNL1        0.0619
     50 H         120.8108  149.3734  147.7716 H       1  UNL1        0.0829
     51 H         116.3155  152.2185  145.2388 H       1  UNL1        0.0873
     52 H         116.3408  153.8622  144.5422 H       1  UNL1        0.0873
     53 H         121.5292  148.2208  145.6768 H       1  UNL1        0.0633
     54 H         112.7961  155.4799  147.9441 H       1  UNL1        0.0659
     55 H         111.5729  153.3358  147.0897 H       1  UNL1        0.0694
     56 H         116.0022  157.5024  147.9359 H       1  UNL1        0.0660
     57 H         114.8194  156.5519  148.8453 H       1  UNL1        0.0660
     58 H         114.3628  157.3456  147.2874 H       1  UNL1        0.0660
@<TRIPOS>UNITY_ATOM_ATTR
5 1
charge 1
@<TRIPOS>BOND
     1     1    23   ar
     2     1    26   ar
     3     2     6    1
     4     2    15    1
     5     3    24    1
     6     3    27    1
     7     4    16   ar
     8     4    20   ar
     9     5    17    1
    10     5    21    1
    11     5    28    1
    12     5    29    1
    13     6     8    1
    14     6     9    1
    15     6    10    1
    16     7     8    1
    17     7    11    1
    18     7    14    1
    19     7    16    1
    20     8    30    1
    21     8    31    1
    22     9    12    1
    23     9    32    1
    24     9    33    1
    25    10    13    1
    26    10    34    1
    27    10    35    1
    28    11    15    1
    29    11    36    1
    30    11    37    1
    31    12    13    1
    32    12    38    1
    33    12    39    1
    34    13    40    1
    35    13    41    1
    36    14    17    1
    37    14    42    1
    38    14    43    1
    39    15    44    1
    40    15    45    1
    41    16    18   ar
    42    17    46    1
    43    17    47    1
    44    18    19   ar
    45    18    48    1
    46    19    22   ar
    47    19    49    1
    48    20    22   ar
    49    20    50    1
    50    21    23    1
    51    21    51    1
    52    21    52    1
    53    22    53    1
    54    23    24   ar
    55    24    25   ar
    56    25    26   ar
    57    25    54    1
    58    26    55    1
    59    27    56    1
    60    27    57    1
    61    27    58    1
@<TRIPOS>MOLECULE
66553195
 58 61 0 0 0
SMALL
GASTEIGER

@<TRIPOS>ATOM
      1 S         119.7805  159.5155  148.0788 S.2     1  UNL1       -0.0926
      2 O         124.1317  154.6559  145.5652 O.3     1  UNL1       -0.3733
      3 O         117.9473  157.2402  150.5892 O.3     1  UNL1       -0.4941
      4 N         120.9195  151.8658  145.0816 N.ar    1  UNL1       -0.2593
      5 N         118.4867  155.9781  147.6983 N.4     1  UNL1        0.2308
      6 C         124.0643  154.0261  146.8486 C.3     1  UNL1        0.0704
      7 C         121.4941  153.7921  146.4962 C.3     1  UNL1        0.0224
      8 C         122.6549  154.1931  147.4504 C.3     1  UNL1       -0.0124
      9 C         125.1125  154.7193  147.7361 C.3     1  UNL1       -0.0237
     10 C         124.6221  152.5981  146.8150 C.3     1  UNL1       -0.0237
     11 C         121.7711  154.4962  145.1369 C.3     1  UNL1       -0.0181
     12 C         126.4523  154.1338  147.2928 C.3     1  UNL1       -0.0504
     13 C         126.1299  152.7853  146.6544 C.3     1  UNL1       -0.0504
     14 C         120.1103  154.2391  147.0766 C.3     1  UNL1       -0.0013
     15 C         123.1704  154.1930  144.6210 C.3     1  UNL1        0.0492
     16 C         121.3531  152.2708  146.3010 C.ar    1  UNL1        0.0478
     17 C         119.8508  155.7429  147.1258 C.3     1  UNL1       -0.0325
     18 C         121.5469  151.3545  147.3360 C.ar    1  UNL1       -0.0398
     19 C         121.3581  149.9950  147.0904 C.ar    1  UNL1       -0.0586
     20 C         120.7514  150.5410  144.8651 C.ar    1  UNL1        0.0279
     21 C         118.0257  157.4028  147.6528 C.3     1  UNL1        0.0021
     22 C         120.9599  149.5758  145.8297 C.ar    1  UNL1       -0.0436
     23 C         118.7508  158.2639  148.6264 C.ar    1  UNL1        0.0756
     24 C         118.7070  158.2015  150.0037 C.ar    1  UNL1        0.1353
     25 C         119.5323  159.1900  150.6132 C.ar    1  UNL1       -0.0124
     26 C         120.1721  159.9746  149.6772 C.ar    1  UNL1       -0.0203
     27 C         117.7011  157.4563  151.9791 C.3     1  UNL1        0.0788
     28 H         118.4562  155.6841  148.6856 H       1  UNL1        0.2017
     29 H         117.7954  155.4028  147.2026 H       1  UNL1        0.2017
     30 H         122.5399  155.2618  147.6761 H       1  UNL1        0.0302
     31 H         122.5863  153.6857  148.4188 H       1  UNL1        0.0302
     32 H         124.9463  154.4825  148.7944 H       1  UNL1        0.0293
     33 H         125.1101  155.8087  147.6223 H       1  UNL1        0.0293
     34 H         124.2365  151.9783  146.0025 H       1  UNL1        0.0293
     35 H         124.4248  152.0840  147.7634 H       1  UNL1        0.0293
     36 H         121.7217  155.5831  145.2748 H       1  UNL1        0.0296
     37 H         121.0211  154.2426  144.3791 H       1  UNL1        0.0296
     38 H         127.1363  154.0289  148.1411 H       1  UNL1        0.0266
     39 H         126.9371  154.7886  146.5597 H       1  UNL1        0.0266
     40 H         126.4004  152.8034  145.5921 H       1  UNL1        0.0266
     41 H         126.6872  151.9672  147.1214 H       1  UNL1        0.0266
     42 H         119.9951  153.8258  148.0888 H       1  UNL1        0.0326
     43 H         119.3075  153.7849  146.4770 H       1  UNL1        0.0326
     44 H         123.3235  153.1347  144.3935 H       1  UNL1        0.0560
     45 H         123.3409  154.7447  143.6905 H       1  UNL1        0.0560
     46 H         120.5663  156.2620  147.7674 H       1  UNL1        0.0814
     47 H         119.8419  156.1858  146.1267 H       1  UNL1        0.0814
     48 H         121.8468  151.6616  148.3312 H       1  UNL1        0.0636
     49 H         121.5249  149.2657  147.8793 H       1  UNL1        0.0619
     50 H         120.4336  150.2696  143.8619 H       1  UNL1        0.0829
     51 H         116.9581  157.3791  147.8993 H       1  UNL1        0.0873
     52 H         118.1187  157.7410  146.6152 H       1  UNL1        0.0873
     53 H         120.8132  148.5248  145.6059 H       1  UNL1        0.0633
     54 H         119.6699  159.3379  151.6776 H       1  UNL1        0.0659
     55 H         120.8526  160.7975  149.8579 H       1  UNL1        0.0694
     56 H         116.9910  156.6943  152.3142 H       1  UNL1        0.0660
     57 H         117.2473  158.4381  152.1543 H       1  UNL1        0.0660
     58 H         118.6207  157.3384  152.5614 H       1  UNL1        0.0660
@<TRIPOS>UNITY_ATOM_ATTR
5 1
charge 1
@<TRIPOS>BOND
     1     1    23   ar
     2     1    26   ar
     3     2     6    1
     4     2    15    1
     5     3    24    1
     6     3    27    1
     7     4    16   ar
     8     4    20   ar
     9     5    17    1
    10     5    21    1
    11     5    28    1
    12     5    29    1
    13     6     8    1
    14     6     9    1
    15     6    10    1
    16     7     8    1
    17     7    11    1
    18     7    14    1
    19     7    16    1
    20     8    30    1
    21     8    31    1
    22     9    12    1
    23     9    32    1
    24     9    33    1
    25    10    13    1
    26    10    34    1
    27    10    35    1
    28    11    15    1
    29    11    36    1
    30    11    37    1
    31    12    13    1
    32    12    38    1
    33    12    39    1
    34    13    40    1
    35    13    41    1
    36    14    17    1
    37    14    42    1
    38    14    43    1
    39    15    44    1
    40    15    45    1
    41    16    18   ar
    42    17    46    1
    43    17    47    1
    44    18    19   ar
    45    18    48    1
    46    19    22   ar
    47    19    49    1
    48    20    22   ar
    49    20    50    1
    50    21    23    1
    51    21    51    1
    52    21    52    1
    53    22    53    1
    54    23    24   ar
    55    24    25   ar
    56    25    26   ar
    57    25    54    1
    58    26    55    1
    59    27    56    1
    60    27    57    1
    61    27    58    1
@<TRIPOS>MOLECULE
66553195
 58 61 0 0 0
SMALL
GASTEIGER

@<TRIPOS>ATOM
      1 S         113.8634  154.7237  145.1523 S.2     1  UNL1       -0.0926
      2 O         123.8133  154.9129  145.7689 O.3     1  UNL1       -0.3733
      3 O         115.2781  152.4557  147.9278 O.3     1  UNL1       -0.4941
      4 N         121.1468  151.6136  144.7049 N.ar    1  UNL1       -0.2593
      5 N         117.4164  153.6746  146.2409 N.4     1  UNL1        0.2308
      6 C         123.7204  154.1607  146.9817 C.3     1  UNL1        0.0704
      7 C         121.2995  153.4866  146.2778 C.3     1  UNL1        0.0224
      8 C         122.2476  154.0063  147.4001 C.3     1  UNL1       -0.0124
      9 C         124.5061  154.9430  148.0479 C.3     1  UNL1       -0.0237
     10 C         124.5419  152.8676  146.9159 C.3     1  UNL1       -0.0237
     11 C         121.5902  154.3531  145.0187 C.3     1  UNL1       -0.0181
     12 C         125.9757  154.6546  147.7434 C.3     1  UNL1       -0.0504
     13 C         125.9936  153.3404  146.9671 C.3     1  UNL1       -0.0504
     14 C         119.8226  153.7157  146.7370 C.3     1  UNL1       -0.0013
     15 C         123.0727  154.3818  144.6779 C.3     1  UNL1        0.0492
     16 C         121.4419  151.9899  145.9756 C.ar    1  UNL1        0.0478
     17 C         118.7616  153.3058  145.7104 C.3     1  UNL1       -0.0325
     18 C         121.7313  151.0416  146.9565 C.ar    1  UNL1       -0.0398
     19 C         121.8027  149.6941  146.6061 C.ar    1  UNL1       -0.0586
     20 C         121.2459  150.3019  144.3843 C.ar    1  UNL1        0.0279
     21 C         116.2847  153.3712  145.3126 C.3     1  UNL1        0.0021
     22 C         121.5674  149.3143  145.2934 C.ar    1  UNL1       -0.0436
     23 C         114.9777  153.6987  145.9483 C.ar    1  UNL1        0.0756
     24 C         114.4925  153.2607  147.1645 C.ar    1  UNL1        0.1353
     25 C         113.1929  153.7751  147.4412 C.ar    1  UNL1       -0.0124
     26 C         112.7322  154.5843  146.4246 C.ar    1  UNL1       -0.0203
     27 C         114.6093  151.8765  149.0489 C.3     1  UNL1        0.0788
     28 H         117.3732  154.6728  146.4785 H       1  UNL1        0.2017
     29 H         117.2213  153.1643  147.1159 H       1  UNL1        0.2017
     30 H         121.8929  155.0108  147.6772 H       1  UNL1        0.0302
     31 H         122.1656  153.4126  148.3171 H       1  UNL1        0.0302
     32 H         124.2670  154.5792  149.0549 H       1  UNL1        0.0293
     33 H         124.3086  156.0198  148.0145 H       1  UNL1        0.0293
     34 H         124.3758  152.2695  146.0171 H       1  UNL1        0.0293
     35 H         124.3411  152.2374  147.7907 H       1  UNL1        0.0293
     36 H         121.2698  155.3839  145.2243 H       1  UNL1        0.0296
     37 H         121.0283  154.0230  144.1385 H       1  UNL1        0.0296
     38 H         126.5632  154.5904  148.6649 H       1  UNL1        0.0266
     39 H         126.4089  155.4556  147.1335 H       1  UNL1        0.0266
     40 H         126.3739  153.5130  145.9534 H       1  UNL1        0.0266
     41 H         126.6416  152.5948  147.4386 H       1  UNL1        0.0266
     42 H         119.6846  154.7786  146.9791 H       1  UNL1        0.0326
     43 H         119.6401  153.1669  147.6716 H       1  UNL1        0.0326
     44 H         123.4548  153.3982  144.3897 H       1  UNL1        0.0560
     45 H         123.2346  155.0464  143.8227 H       1  UNL1        0.0560
     46 H         118.8784  153.8359  144.7618 H       1  UNL1        0.0814
     47 H         118.7373  152.2261  145.5426 H       1  UNL1        0.0814
     48 H         121.9161  151.3144  147.9896 H       1  UNL1        0.0636
     49 H         122.0536  148.9455  147.3541 H       1  UNL1        0.0619
     50 H         121.0533  150.0593  143.3423 H       1  UNL1        0.0829
     51 H         116.3352  152.3020  145.0786 H       1  UNL1        0.0873
     52 H         116.4641  153.9462  144.3979 H       1  UNL1        0.0873
     53 H         121.6357  148.2757  144.9879 H       1  UNL1        0.0633
     54 H         112.6054  153.5814  148.3307 H       1  UNL1        0.0659
     55 H         111.7827  155.1023  146.3701 H       1  UNL1        0.0694
     56 H         115.3093  151.1906  149.5356 H       1  UNL1        0.0660
     57 H         113.7354  151.2965  148.7329 H       1  UNL1        0.0660
     58 H         114.3308  152.6448  149.7775 H       1  UNL1        0.0660
@<TRIPOS>UNITY_ATOM_ATTR
5 1
charge 1
@<TRIPOS>BOND
     1     1    23   ar
     2     1    26   ar
     3     2     6    1
     4     2    15    1
     5     3    24    1
     6     3    27    1
     7     4    16   ar
     8     4    20   ar
     9     5    17    1
    10     5    21    1
    11     5    28    1
    12     5    29    1
    13     6     8    1
    14     6     9    1
    15     6    10    1
    16     7     8    1
    17     7    11    1
    18     7    14    1
    19     7    16    1
    20     8    30    1
    21     8    31    1
    22     9    12    1
    23     9    32    1
    24     9    33    1
    25    10    13    1
    26    10    34    1
    27    10    35    1
    28    11    15    1
    29    11    36    1
    30    11    37    1
    31    12    13    1
    32    12    38    1
    33    12    39    1
    34    13    40    1
    35    13    41    1
    36    14    17    1
    37    14    42    1
    38    14    43    1
    39    15    44    1
    40    15    45    1
    41    16    18   ar
    42    17    46    1
    43    17    47    1
    44    18    19   ar
    45    18    48    1
    46    19    22   ar
    47    19    49    1
    48    20    22   ar
    49    20    50    1
    50    21    23    1
    51    21    51    1
    52    21    52    1
    53    22    53    1
    54    23    24   ar
    55    24    25   ar
    56    25    26   ar
    57    25    54    1
    58    26    55    1
    59    27    56    1
    60    27    57    1
    61    27    58    1
@<TRIPOS>MOLECULE
66553195
 58 61 0 0 0
SMALL
GASTEIGER

@<TRIPOS>ATOM
      1 S         113.7363  154.1674  144.9363 S.2     1  UNL1       -0.0926
      2 O         123.8773  154.8793  145.7031 O.3     1  UNL1       -0.3733
      3 O         115.5439  153.7497  148.3188 O.3     1  UNL1       -0.4941
      4 N         121.1297  151.5846  144.8243 N.ar    1  UNL1       -0.2593
      5 N         117.4682  153.8082  146.2507 N.4     1  UNL1        0.2308
      6 C         123.7794  154.1896  146.9522 C.3     1  UNL1        0.0704
      7 C         121.3410  153.5286  146.2994 C.3     1  UNL1        0.0224
      8 C         122.3071  154.0857  147.3875 C.3     1  UNL1       -0.0124
      9 C         124.5880  155.0070  147.9740 C.3     1  UNL1       -0.0237
     10 C         124.5751  152.8789  146.9439 C.3     1  UNL1       -0.0237
     11 C         121.6378  154.3263  144.9965 C.3     1  UNL1       -0.0181
     12 C         126.0497  154.6723  147.6787 C.3     1  UNL1       -0.0504
     13 C         126.0357  153.3256  146.9602 C.3     1  UNL1       -0.0504
     14 C         119.8728  153.8154  146.7535 C.3     1  UNL1       -0.0013
     15 C         123.1179  154.3096  144.6446 C.3     1  UNL1        0.0492
     16 C         121.4521  152.0166  146.0707 C.ar    1  UNL1        0.0478
     17 C         118.7936  153.2973  145.7971 C.3     1  UNL1       -0.0325
     18 C         121.7379  151.1116  147.0923 C.ar    1  UNL1       -0.0398
     19 C         121.7794  149.7476  146.8063 C.ar    1  UNL1       -0.0586
     20 C         121.2009  150.2576  144.5656 C.ar    1  UNL1        0.0279
     21 C         116.3028  153.2768  145.4813 C.3     1  UNL1        0.0021
     22 C         121.5182  149.3093  145.5167 C.ar    1  UNL1       -0.0436
     23 C         115.0090  153.7897  146.0189 C.ar    1  UNL1        0.0756
     24 C         114.6385  153.9983  147.3341 C.ar    1  UNL1        0.1353
     25 C         113.3006  154.4782  147.4450 C.ar    1  UNL1       -0.0124
     26 C         112.6959  154.6130  146.2140 C.ar    1  UNL1       -0.0203
     27 C         115.0360  153.9215  149.6427 C.3     1  UNL1        0.0788
     28 H         117.4372  154.8339  146.2070 H       1  UNL1        0.2017
     29 H         117.2960  153.5705  147.2401 H       1  UNL1        0.2017
     30 H         121.9731  155.1093  147.6163 H       1  UNL1        0.0302
     31 H         122.2208  153.5399  148.3335 H       1  UNL1        0.0302
     32 H         124.3468  154.6992  148.9991 H       1  UNL1        0.0293
     33 H         124.4132  156.0847  147.8880 H       1  UNL1        0.0293
     34 H         124.3899  152.2408  146.0769 H       1  UNL1        0.0293
     35 H         124.3702  152.2965  147.8503 H       1  UNL1        0.0293
     36 H         121.3399  155.3723  145.1531 H       1  UNL1        0.0296
     37 H         121.0611  153.9656  144.1383 H       1  UNL1        0.0296
     38 H         126.6381  154.6341  148.6012 H       1  UNL1        0.0266
     39 H         126.4995  155.4362  147.0343 H       1  UNL1        0.0266
     40 H         126.4078  153.4473  145.9362 H       1  UNL1        0.0266
     41 H         126.6751  152.5892  147.4569 H       1  UNL1        0.0266
     42 H         119.7443  154.8986  146.8854 H       1  UNL1        0.0326
     43 H         119.7028  153.3687  147.7433 H       1  UNL1        0.0326
     44 H         123.4789  153.3059  144.4023 H       1  UNL1        0.0560
     45 H         123.2856  154.9285  143.7568 H       1  UNL1        0.0560
     46 H         118.9291  153.6559  144.7738 H       1  UNL1        0.0814
     47 H         118.7262  152.2060  145.8122 H       1  UNL1        0.0814
     48 H         121.9429  151.4301  148.1084 H       1  UNL1        0.0636
     49 H         122.0277  149.0311  147.5859 H       1  UNL1        0.0619
     50 H         120.9889  149.9691  143.5392 H       1  UNL1        0.0829
     51 H         116.3347  152.1845  145.5611 H       1  UNL1        0.0873
     52 H         116.4612  153.5674  144.4372 H       1  UNL1        0.0873
     53 H         121.5638  148.2561  145.2609 H       1  UNL1        0.0633
     54 H         112.7820  154.7183  148.3656 H       1  UNL1        0.0659
     55 H         111.6886  154.9515  146.0053 H       1  UNL1        0.0694
     56 H         115.8392  153.6696  150.3418 H       1  UNL1        0.0660
     57 H         114.1976  153.2437  149.8351 H       1  UNL1        0.0660
     58 H         114.7514  154.9639  149.8214 H       1  UNL1        0.0660
@<TRIPOS>UNITY_ATOM_ATTR
5 1
charge 1
@<TRIPOS>BOND
     1     1    23   ar
     2     1    26   ar
     3     2     6    1
     4     2    15    1
     5     3    24    1
     6     3    27    1
     7     4    16   ar
     8     4    20   ar
     9     5    17    1
    10     5    21    1
    11     5    28    1
    12     5    29    1
    13     6     8    1
    14     6     9    1
    15     6    10    1
    16     7     8    1
    17     7    11    1
    18     7    14    1
    19     7    16    1
    20     8    30    1
    21     8    31    1
    22     9    12    1
    23     9    32    1
    24     9    33    1
    25    10    13    1
    26    10    34    1
    27    10    35    1
    28    11    15    1
    29    11    36    1
    30    11    37    1
    31    12    13    1
    32    12    38    1
    33    12    39    1
    34    13    40    1
    35    13    41    1
    36    14    17    1
    37    14    42    1
    38    14    43    1
    39    15    44    1
    40    15    45    1
    41    16    18   ar
    42    17    46    1
    43    17    47    1
    44    18    19   ar
    45    18    48    1
    46    19    22   ar
    47    19    49    1
    48    20    22   ar
    49    20    50    1
    50    21    23    1
    51    21    51    1
    52    21    52    1
    53    22    53    1
    54    23    24   ar
    55    24    25   ar
    56    25    26   ar
    57    25    54    1
    58    26    55    1
    59    27    56    1
    60    27    57    1
    61    27    58    1
@<TRIPOS>MOLECULE
66553195
 58 61 0 0 0
SMALL
GASTEIGER

@<TRIPOS>ATOM
      1 S         115.9327  151.0545  146.2607 S.2     1  UNL1       -0.0926
      2 O         124.0388  154.7297  145.7363 O.3     1  UNL1       -0.3733
      3 O         115.6953  152.6940  142.7811 O.3     1  UNL1       -0.4941
      4 N         121.4646  151.2001  145.2725 N.ar    1  UNL1       -0.2593
      5 N         118.8749  151.9306  145.4110 N.4     1  UNL1        0.2308
      6 C         123.9170  154.2289  147.0703 C.3     1  UNL1        0.0704
      7 C         121.5260  153.3743  146.4355 C.3     1  UNL1        0.0224
      8 C         122.4316  154.1258  147.4634 C.3     1  UNL1       -0.0124
      9 C         124.6511  155.2238  147.9859 C.3     1  UNL1       -0.0237
     10 C         124.7663  152.9700  147.2831 C.3     1  UNL1       -0.0237
     11 C         121.8529  153.9796  145.0412 C.3     1  UNL1       -0.0181
     12 C         126.1362  154.9162  147.7945 C.3     1  UNL1       -0.0504
     13 C         126.2052  153.4823  147.2761 C.3     1  UNL1       -0.0504
     14 C         120.0268  153.6581  146.8005 C.3     1  UNL1       -0.0013
     15 C         123.3463  153.9800  144.7489 C.3     1  UNL1        0.0492
     16 C         121.7248  151.8485  146.4456 C.ar    1  UNL1        0.0478
     17 C         118.9581  153.3749  145.7329 C.3     1  UNL1       -0.0325
     18 C         122.0332  151.1322  147.6011 C.ar    1  UNL1       -0.0398
     19 C         122.2050  149.7504  147.5277 C.ar    1  UNL1       -0.0586
     20 C         121.7014  149.8625  145.2169 C.ar    1  UNL1        0.0279
     21 C         117.9051  151.5431  144.3488 C.3     1  UNL1        0.0021
     22 C         122.0601  149.1030  146.3106 C.ar    1  UNL1       -0.0436
     23 C         116.4751  151.6673  144.7526 C.ar    1  UNL1        0.0756
     24 C         115.4351  152.1973  144.0165 C.ar    1  UNL1        0.1353
     25 C         114.1950  152.1408  144.7166 C.ar    1  UNL1       -0.0124
     26 C         114.3265  151.5465  145.9532 C.ar    1  UNL1       -0.0203
     27 C         114.5383  152.9952  142.0045 C.3     1  UNL1        0.0788
     28 H         118.6726  151.3809  146.2537 H       1  UNL1        0.2017
     29 H         119.8108  151.6056  145.0991 H       1  UNL1        0.2017
     30 H         122.0569  155.1590  147.5232 H       1  UNL1        0.0302
     31 H         122.3241  153.7268  148.4778 H       1  UNL1        0.0302
     32 H         124.3809  155.0598  149.0365 H       1  UNL1        0.0293
     33 H         124.4374  156.2681  147.7344 H       1  UNL1        0.0293
     34 H         124.6413  152.2029  146.5157 H       1  UNL1        0.0293
     35 H         124.5533  152.5200  148.2601 H       1  UNL1        0.0293
     36 H         121.5056  155.0222  145.0267 H       1  UNL1        0.0296
     37 H         121.3320  153.4642  144.2270 H       1  UNL1        0.0296
     38 H         126.6857  155.0345  148.7340 H       1  UNL1        0.0266
     39 H         126.5834  155.6007  147.0647 H       1  UNL1        0.0266
     40 H         126.6065  153.4753  146.2558 H       1  UNL1        0.0266
     41 H         126.8585  152.8546  147.8903 H       1  UNL1        0.0266
     42 H         119.9269  154.7248  147.0440 H       1  UNL1        0.0326
     43 H         119.7625  153.1204  147.7216 H       1  UNL1        0.0326
     44 H         123.7555  152.9687  144.6694 H       1  UNL1        0.0560
     45 H         123.5256  154.4693  143.7857 H       1  UNL1        0.0560
     46 H         117.9777  153.6800  146.1133 H       1  UNL1        0.0814
     47 H         119.1516  153.9182  144.8035 H       1  UNL1        0.0814
     48 H         122.1693  151.6136  148.5641 H       1  UNL1        0.0636
     49 H         122.4801  149.1858  148.4166 H       1  UNL1        0.0619
     50 H         121.5844  149.4030  144.2378 H       1  UNL1        0.0829
     51 H         118.1282  150.4984  144.1035 H       1  UNL1        0.0873
     52 H         118.1445  152.1496  143.4690 H       1  UNL1        0.0873
     53 H         122.2293  148.0347  146.2201 H       1  UNL1        0.0633
     54 H         113.2424  152.5051  144.3514 H       1  UNL1        0.0659
     55 H         113.5486  151.3698  146.6856 H       1  UNL1        0.0694
     56 H         113.9797  153.8295  142.4409 H       1  UNL1        0.0660
     57 H         113.8996  152.1130  141.8859 H       1  UNL1        0.0660
     58 H         114.8747  153.3003  141.0089 H       1  UNL1        0.0660
@<TRIPOS>UNITY_ATOM_ATTR
5 1
charge 1
@<TRIPOS>BOND
     1     1    23   ar
     2     1    26   ar
     3     2     6    1
     4     2    15    1
     5     3    24    1
     6     3    27    1
     7     4    16   ar
     8     4    20   ar
     9     5    17    1
    10     5    21    1
    11     5    28    1
    12     5    29    1
    13     6     8    1
    14     6     9    1
    15     6    10    1
    16     7     8    1
    17     7    11    1
    18     7    14    1
    19     7    16    1
    20     8    30    1
    21     8    31    1
    22     9    12    1
    23     9    32    1
    24     9    33    1
    25    10    13    1
    26    10    34    1
    27    10    35    1
    28    11    15    1
    29    11    36    1
    30    11    37    1
    31    12    13    1
    32    12    38    1
    33    12    39    1
    34    13    40    1
    35    13    41    1
    36    14    17    1
    37    14    42    1
    38    14    43    1
    39    15    44    1
    40    15    45    1
    41    16    18   ar
    42    17    46    1
    43    17    47    1
    44    18    19   ar
    45    18    48    1
    46    19    22   ar
    47    19    49    1
    48    20    22   ar
    49    20    50    1
    50    21    23    1
    51    21    51    1
    52    21    52    1
    53    22    53    1
    54    23    24   ar
    55    24    25   ar
    56    25    26   ar
    57    25    54    1
    58    26    55    1
    59    27    56    1
    60    27    57    1
    61    27    58    1
@<TRIPOS>MOLECULE
66553195
 58 61 0 0 0
SMALL
GASTEIGER

@<TRIPOS>ATOM
      1 S         116.1734  158.0933  149.9961 S.2     1  UNL1       -0.0926
      2 O         124.0263  154.8202  145.5782 O.3     1  UNL1       -0.3733
      3 O         115.5542  156.1751  146.7127 O.3     1  UNL1       -0.4941
      4 N         120.9014  151.9188  144.9622 N.ar    1  UNL1       -0.2593
      5 N         118.3467  155.8348  147.7480 N.4     1  UNL1        0.2308
      6 C         123.9721  154.1467  146.8397 C.3     1  UNL1        0.0704
      7 C         121.4176  153.8127  146.4406 C.3     1  UNL1        0.0224
      8 C         122.5487  154.2269  147.4247 C.3     1  UNL1       -0.0124
      9 C         124.9710  154.8632  147.7653 C.3     1  UNL1       -0.0237
     10 C         124.6006  152.7501  146.7718 C.3     1  UNL1       -0.0237
     11 C         121.6811  154.5734  145.1100 C.3     1  UNL1       -0.0181
     12 C         126.3446  154.3599  147.3259 C.3     1  UNL1       -0.0504
     13 C         126.1000  153.0157  146.6455 C.3     1  UNL1       -0.0504
     14 C         120.0082  154.1864  147.0106 C.3     1  UNL1       -0.0013
     15 C         123.0990  154.3451  144.6063 C.3     1  UNL1        0.0492
     16 C         121.3377  152.2950  146.1898 C.ar    1  UNL1        0.0478
     17 C         119.7274  155.6741  147.2070 C.3     1  UNL1       -0.0325
     18 C         121.5852  151.3483  147.1854 C.ar    1  UNL1       -0.0398
     19 C         121.4466  149.9924  146.8907 C.ar    1  UNL1       -0.0586
     20 C         120.7807  150.5973  144.6981 C.ar    1  UNL1        0.0279
     21 C         117.9549  157.2479  148.0402 C.3     1  UNL1        0.0021
     22 C         121.0430  149.6055  145.6216 C.ar    1  UNL1       -0.0436
     23 C         116.5457  157.3219  148.5156 C.ar    1  UNL1        0.0756
     24 C         115.4140  156.8379  147.8910 C.ar    1  UNL1        0.1353
     25 C         114.2311  157.1074  148.6380 C.ar    1  UNL1       -0.0124
     26 C         114.5035  157.7893  149.8050 C.ar    1  UNL1       -0.0203
     27 C         114.3234  155.9104  146.0384 C.3     1  UNL1        0.0788
     28 H         118.2146  155.2828  148.6043 H       1  UNL1        0.2017
     29 H         117.6523  155.4717  147.0749 H       1  UNL1        0.2017
     30 H         122.3879  155.2813  147.6852 H       1  UNL1        0.0302
     31 H         122.4882  153.6843  148.3744 H       1  UNL1        0.0302
     32 H         124.8013  154.5852  148.8130 H       1  UNL1        0.0293
     33 H         124.9151  155.9542  147.6850 H       1  UNL1        0.0293
     34 H         124.2591  152.1387  145.9336 H       1  UNL1        0.0293
     35 H         124.4134  152.1970  147.7001 H       1  UNL1        0.0293
     36 H         121.5801  155.6517  145.2822 H       1  UNL1        0.0296
     37 H         120.9539  154.3127  144.3326 H       1  UNL1        0.0296
     38 H         127.0219  154.2663  148.1810 H       1  UNL1        0.0266
     39 H         126.8045  155.0596  146.6186 H       1  UNL1        0.0266
     40 H         126.3888  153.0763  145.5896 H       1  UNL1        0.0266
     41 H         126.6885  152.2133  147.1015 H       1  UNL1        0.0266
     42 H         119.8658  153.6735  147.9727 H       1  UNL1        0.0326
     43 H         119.2327  153.7845  146.3419 H       1  UNL1        0.0326
     44 H         123.2996  153.3008  144.3515 H       1  UNL1        0.0560
     45 H         123.2587  154.9303  143.6947 H       1  UNL1        0.0560
     46 H         120.4045  156.1282  147.9347 H       1  UNL1        0.0814
     47 H         119.7541  156.2304  146.2669 H       1  UNL1        0.0814
     48 H         121.8887  151.6278  148.1875 H       1  UNL1        0.0636
     49 H         121.6555  149.2413  147.6485 H       1  UNL1        0.0619
     50 H         120.4554  150.3514  143.6908 H       1  UNL1        0.0829
     51 H         118.0722  157.8144  147.1097 H       1  UNL1        0.0873
     52 H         118.6688  157.6258  148.7797 H       1  UNL1        0.0873
     53 H         120.9330  148.5586  145.3604 H       1  UNL1        0.0633
     54 H         113.2224  156.8263  148.3601 H       1  UNL1        0.0659
     55 H         113.7982  158.1226  150.5562 H       1  UNL1        0.0694
     56 H         114.5639  155.4493  145.0757 H       1  UNL1        0.0660
     57 H         113.7736  156.8368  145.8395 H       1  UNL1        0.0660
     58 H         113.7109  155.2023  146.6063 H       1  UNL1        0.0660
@<TRIPOS>UNITY_ATOM_ATTR
5 1
charge 1
@<TRIPOS>BOND
     1     1    23   ar
     2     1    26   ar
     3     2     6    1
     4     2    15    1
     5     3    24    1
     6     3    27    1
     7     4    16   ar
     8     4    20   ar
     9     5    17    1
    10     5    21    1
    11     5    28    1
    12     5    29    1
    13     6     8    1
    14     6     9    1
    15     6    10    1
    16     7     8    1
    17     7    11    1
    18     7    14    1
    19     7    16    1
    20     8    30    1
    21     8    31    1
    22     9    12    1
    23     9    32    1
    24     9    33    1
    25    10    13    1
    26    10    34    1
    27    10    35    1
    28    11    15    1
    29    11    36    1
    30    11    37    1
    31    12    13    1
    32    12    38    1
    33    12    39    1
    34    13    40    1
    35    13    41    1
    36    14    17    1
    37    14    42    1
    38    14    43    1
    39    15    44    1
    40    15    45    1
    41    16    18   ar
    42    17    46    1
    43    17    47    1
    44    18    19   ar
    45    18    48    1
    46    19    22   ar
    47    19    49    1
    48    20    22   ar
    49    20    50    1
    50    21    23    1
    51    21    51    1
    52    21    52    1
    53    22    53    1
    54    23    24   ar
    55    24    25   ar
    56    25    26   ar
    57    25    54    1
    58    26    55    1
    59    27    56    1
    60    27    57    1
    61    27    58    1
