@<TRIPOS>MOLECULE
66555030
 58 61 0 0 0
SMALL
GASTEIGER

@<TRIPOS>ATOM
      1 S          -0.5936   -0.9419    4.0121 S.2     1  UNL1       -0.0926
      2 O           3.7389    2.0185   -0.6934 O.3     1  UNL1       -0.3733
      3 O          -2.1613   -0.5287    0.5032 O.3     1  UNL1       -0.4941
      4 N           1.0096   -1.9957    0.6441 N.ar    1  UNL1       -0.2593
      5 N          -1.6674    2.0414    1.6033 N.4     1  UNL1        0.2308
      6 C           3.8512    1.2252    0.4942 C.3     1  UNL1        0.0704
      7 C           1.4231    0.3747    0.1125 C.3     1  UNL1        0.0224
      8 C           2.4643    0.9676    1.1076 C.3     1  UNL1       -0.0124
      9 C           4.7367    2.0144    1.4725 C.3     1  UNL1       -0.0237
     10 C           4.7153   -0.0215    0.2655 C.3     1  UNL1       -0.0237
     11 C           1.4573    1.2951   -1.1383 C.3     1  UNL1       -0.0181
     12 C           6.1616    1.8150    0.9589 C.3     1  UNL1       -0.0504
     13 C           6.1397    0.5192    0.1522 C.3     1  UNL1       -0.0504
     14 C           0.0115    0.4968    0.7385 C.3     1  UNL1       -0.0013
     15 C           2.8671    1.4887   -1.6863 C.3     1  UNL1        0.0492
     16 C           1.6501   -1.1244   -0.1669 C.ar    1  UNL1        0.0478
     17 C          -0.3430    1.9539    0.9995 C.3     1  UNL1       -0.0325
     18 C           2.4788   -1.5020   -1.2112 C.ar    1  UNL1       -0.0398
     19 C           2.6617   -2.8617   -1.4377 C.ar    1  UNL1       -0.0586
     20 C           1.2117   -3.3090    0.3936 C.ar    1  UNL1        0.0279
     21 C          -1.7056    1.3346    2.8758 C.3     1  UNL1        0.0021
     22 C           2.0195   -3.7888   -0.6246 C.ar    1  UNL1       -0.0436
     23 C          -1.3596   -0.1222    2.7185 C.ar    1  UNL1        0.0756
     24 C          -1.5736   -0.9486    1.6372 C.ar    1  UNL1        0.1353
     25 C          -1.1027   -2.2723    1.8743 C.ar    1  UNL1       -0.0124
     26 C          -0.5467   -2.4072    3.1272 C.ar    1  UNL1       -0.0203
     27 C          -1.7700   -1.1618   -0.7231 C.3     1  UNL1        0.0788
     28 H          -2.3511    1.6266    0.9702 H       1  UNL1        0.2017
     29 H          -1.8858    3.0238    1.7693 H       1  UNL1        0.2017
     30 H           2.0834    1.8968    1.4769 H       1  UNL1        0.0302
     31 H           2.6010    0.2383    1.8785 H       1  UNL1        0.0302
     32 H           4.6369    1.6291    2.4657 H       1  UNL1        0.0293
     33 H           4.4653    3.0484    1.5180 H       1  UNL1        0.0293
     34 H           4.4274   -0.5217   -0.6355 H       1  UNL1        0.0293
     35 H           4.6127   -0.7389    1.0527 H       1  UNL1        0.0293
     36 H           1.0594    2.2516   -0.8707 H       1  UNL1        0.0296
     37 H           0.8746    0.8247   -1.9025 H       1  UNL1        0.0296
     38 H           6.8441    1.7313    1.7787 H       1  UNL1        0.0266
     39 H           6.4830    2.6431    0.3623 H       1  UNL1        0.0266
     40 H           6.3834    0.7140   -0.8713 H       1  UNL1        0.0266
     41 H           6.8570   -0.1844    0.5201 H       1  UNL1        0.0266
     42 H          -0.0089   -0.0399    1.6640 H       1  UNL1        0.0326
     43 H          -0.7025    0.0887    0.0539 H       1  UNL1        0.0326
     44 H           3.2463    0.5437   -2.0149 H       1  UNL1        0.0560
     45 H           2.8212    2.1815   -2.5004 H       1  UNL1        0.0560
     46 H           0.3788    2.3813    1.6638 H       1  UNL1        0.0814
     47 H          -0.3422    2.4885    0.0726 H       1  UNL1        0.0814
     48 H           2.9456   -0.7964   -1.8022 H       1  UNL1        0.0636
     49 H           3.2717   -3.1813   -2.2064 H       1  UNL1        0.0619
     50 H           0.7349   -3.9962    0.9981 H       1  UNL1        0.0829
     51 H          -2.6905    1.4141    3.2863 H       1  UNL1        0.0873
     52 H          -0.9806    1.7798    3.5247 H       1  UNL1        0.0873
     53 H           2.1408   -4.8026   -0.7748 H       1  UNL1        0.0633
     54 H          -1.1703   -3.0400    1.1878 H       1  UNL1        0.0659
     55 H          -0.1487   -3.2875    3.4900 H       1  UNL1        0.0694
     56 H          -2.3147   -0.7303   -1.5368 H       1  UNL1        0.0660
     57 H          -1.9822   -2.2091   -0.6673 H       1  UNL1        0.0660
     58 H          -0.7213   -1.0181   -0.8798 H       1  UNL1        0.0660
@<TRIPOS>UNITY_ATOM_ATTR
5 1
charge 1
@<TRIPOS>BOND
     1     1    23   ar
     2     1    26   ar
     3     2     6    1
     4     2    15    1
     5     3    24    1
     6     3    27    1
     7     4    16   ar
     8     4    20   ar
     9     5    17    1
    10     5    21    1
    11     5    28    1
    12     5    29    1
    13     6     8    1
    14     6     9    1
    15     6    10    1
    16     7     8    1
    17     7    11    1
    18     7    14    1
    19     7    16    1
    20     8    30    1
    21     8    31    1
    22     9    12    1
    23     9    32    1
    24     9    33    1
    25    10    13    1
    26    10    34    1
    27    10    35    1
    28    11    15    1
    29    11    36    1
    30    11    37    1
    31    12    13    1
    32    12    38    1
    33    12    39    1
    34    13    40    1
    35    13    41    1
    36    14    17    1
    37    14    42    1
    38    14    43    1
    39    15    44    1
    40    15    45    1
    41    16    18   ar
    42    17    46    1
    43    17    47    1
    44    18    19   ar
    45    18    48    1
    46    19    22   ar
    47    19    49    1
    48    20    22   ar
    49    20    50    1
    50    21    23    1
    51    21    51    1
    52    21    52    1
    53    22    53    1
    54    23    24   ar
    55    24    25   ar
    56    25    26   ar
    57    25    54    1
    58    26    55    1
    59    27    56    1
    60    27    57    1
    61    27    58    1
@<TRIPOS>MOLECULE
66555030
 58 61 0 0 0
SMALL
GASTEIGER

@<TRIPOS>ATOM
      1 S          -1.5482    1.5771    3.1364 S.2     1  UNL1       -0.0926
      2 O           3.7389    2.0185   -0.6934 O.3     1  UNL1       -0.3733
      3 O          -0.0965   -2.0052    3.1070 O.3     1  UNL1       -0.4941
      4 N           0.7973   -1.7152   -1.0334 N.ar    1  UNL1       -0.2593
      5 N          -2.3661    0.0561    0.4148 N.4     1  UNL1        0.2308
      6 C           3.8512    1.2252    0.4942 C.3     1  UNL1        0.0704
      7 C           1.4231    0.3747    0.1125 C.3     1  UNL1        0.0224
      8 C           2.4643    0.9676    1.1076 C.3     1  UNL1       -0.0124
      9 C           4.7367    2.0144    1.4725 C.3     1  UNL1       -0.0237
     10 C           4.7153   -0.0215    0.2655 C.3     1  UNL1       -0.0237
     11 C           1.4573    1.2951   -1.1383 C.3     1  UNL1       -0.0181
     12 C           6.1616    1.8150    0.9589 C.3     1  UNL1       -0.0504
     13 C           6.1397    0.5192    0.1522 C.3     1  UNL1       -0.0504
     14 C           0.0115    0.4968    0.7385 C.3     1  UNL1       -0.0013
     15 C           2.8671    1.4887   -1.6863 C.3     1  UNL1        0.0492
     16 C           1.6501   -1.1244   -0.1669 C.ar    1  UNL1        0.0478
     17 C          -1.0463   -0.0856   -0.1884 C.3     1  UNL1       -0.0325
     18 C           2.6925   -1.7823    0.4660 C.ar    1  UNL1       -0.0398
     19 C           2.8712   -3.1336    0.1916 C.ar    1  UNL1       -0.0586
     20 C           1.0020   -3.0297   -1.2753 C.ar    1  UNL1        0.0279
     21 C          -2.4270   -0.6295    1.6979 C.3     1  UNL1        0.0021
     22 C           2.0142   -3.7766   -0.6946 C.ar    1  UNL1       -0.0436
     23 C          -1.4331   -0.0694    2.6804 C.ar    1  UNL1        0.0756
     24 C          -0.3852   -0.7074    3.3073 C.ar    1  UNL1        0.1353
     25 C           0.3321    0.1672    4.1737 C.ar    1  UNL1       -0.0124
     26 C          -0.1944    1.4400    4.1758 C.ar    1  UNL1       -0.0203
     27 C          -0.9289   -2.7396    2.1986 C.3     1  UNL1        0.0788
     28 H          -3.0643   -0.3447   -0.2115 H       1  UNL1        0.2017
     29 H          -2.5508    1.0478    0.5659 H       1  UNL1        0.2017
     30 H           2.0834    1.8968    1.4769 H       1  UNL1        0.0302
     31 H           2.6010    0.2383    1.8785 H       1  UNL1        0.0302
     32 H           4.6369    1.6291    2.4657 H       1  UNL1        0.0293
     33 H           4.4653    3.0484    1.5180 H       1  UNL1        0.0293
     34 H           4.4274   -0.5217   -0.6355 H       1  UNL1        0.0293
     35 H           4.6127   -0.7389    1.0527 H       1  UNL1        0.0293
     36 H           1.0594    2.2516   -0.8707 H       1  UNL1        0.0296
     37 H           0.8746    0.8247   -1.9025 H       1  UNL1        0.0296
     38 H           6.8441    1.7313    1.7787 H       1  UNL1        0.0266
     39 H           6.4830    2.6431    0.3623 H       1  UNL1        0.0266
     40 H           6.3834    0.7140   -0.8713 H       1  UNL1        0.0266
     41 H           6.8570   -0.1844    0.5201 H       1  UNL1        0.0266
     42 H          -0.2061    1.5298    0.9131 H       1  UNL1        0.0326
     43 H          -0.0026   -0.0489    1.6588 H       1  UNL1        0.0326
     44 H           3.2463    0.5437   -2.0149 H       1  UNL1        0.0560
     45 H           2.8212    2.1815   -2.5004 H       1  UNL1        0.0560
     46 H          -1.0252    0.4356   -1.1226 H       1  UNL1        0.0814
     47 H          -0.8415   -1.1235   -0.3488 H       1  UNL1        0.0814
     48 H           3.3166   -1.2850    1.1204 H       1  UNL1        0.0636
     49 H           3.6368   -3.6573    0.6439 H       1  UNL1        0.0619
     50 H           0.3649   -3.5059   -1.9329 H       1  UNL1        0.0829
     51 H          -2.2162   -1.6675    1.5460 H       1  UNL1        0.0873
     52 H          -3.4078   -0.4906    2.1023 H       1  UNL1        0.0873
     53 H           2.1285   -4.7787   -0.9131 H       1  UNL1        0.0633
     54 H           1.1502   -0.1193    4.7339 H       1  UNL1        0.0659
     55 H           0.1827    2.2193    4.7376 H       1  UNL1        0.0694
     56 H          -0.5848   -3.7510    2.1377 H       1  UNL1        0.0660
     57 H          -0.8838   -2.2885    1.2294 H       1  UNL1        0.0660
     58 H          -1.9392   -2.7273    2.5511 H       1  UNL1        0.0660
@<TRIPOS>UNITY_ATOM_ATTR
5 1
charge 1
@<TRIPOS>BOND
     1     1    23   ar
     2     1    26   ar
     3     2     6    1
     4     2    15    1
     5     3    24    1
     6     3    27    1
     7     4    16   ar
     8     4    20   ar
     9     5    17    1
    10     5    21    1
    11     5    28    1
    12     5    29    1
    13     6     8    1
    14     6     9    1
    15     6    10    1
    16     7     8    1
    17     7    11    1
    18     7    14    1
    19     7    16    1
    20     8    30    1
    21     8    31    1
    22     9    12    1
    23     9    32    1
    24     9    33    1
    25    10    13    1
    26    10    34    1
    27    10    35    1
    28    11    15    1
    29    11    36    1
    30    11    37    1
    31    12    13    1
    32    12    38    1
    33    12    39    1
    34    13    40    1
    35    13    41    1
    36    14    17    1
    37    14    42    1
    38    14    43    1
    39    15    44    1
    40    15    45    1
    41    16    18   ar
    42    17    46    1
    43    17    47    1
    44    18    19   ar
    45    18    48    1
    46    19    22   ar
    47    19    49    1
    48    20    22   ar
    49    20    50    1
    50    21    23    1
    51    21    51    1
    52    21    52    1
    53    22    53    1
    54    23    24   ar
    55    24    25   ar
    56    25    26   ar
    57    25    54    1
    58    26    55    1
    59    27    56    1
    60    27    57    1
    61    27    58    1
@<TRIPOS>MOLECULE
66555030
 58 61 0 0 0
SMALL
GASTEIGER

@<TRIPOS>ATOM
      1 S          -2.1604   -0.5292   -1.1421 S.2     1  UNL1       -0.0926
      2 O           3.7389    2.0185   -0.6934 O.3     1  UNL1       -0.3733
      3 O          -2.4865   -0.8745    2.6939 O.3     1  UNL1       -0.4941
      4 N           1.2845   -1.5755   -1.3876 N.ar    1  UNL1       -0.2593
      5 N          -1.6674    2.0414    1.6033 N.4     1  UNL1        0.2308
      6 C           3.8512    1.2252    0.4942 C.3     1  UNL1        0.0704
      7 C           1.4231    0.3747    0.1125 C.3     1  UNL1        0.0224
      8 C           2.4643    0.9676    1.1076 C.3     1  UNL1       -0.0124
      9 C           4.7367    2.0144    1.4725 C.3     1  UNL1       -0.0237
     10 C           4.7153   -0.0215    0.2655 C.3     1  UNL1       -0.0237
     11 C           1.4573    1.2951   -1.1383 C.3     1  UNL1       -0.0181
     12 C           6.1616    1.8150    0.9589 C.3     1  UNL1       -0.0504
     13 C           6.1397    0.5192    0.1522 C.3     1  UNL1       -0.0504
     14 C           0.0115    0.4968    0.7385 C.3     1  UNL1       -0.0013
     15 C           2.8671    1.4887   -1.6863 C.3     1  UNL1        0.0492
     16 C           1.6501   -1.1244   -0.1669 C.ar    1  UNL1        0.0478
     17 C          -0.3430    1.9539    0.9995 C.3     1  UNL1       -0.0325
     18 C           2.2057   -1.9221    0.8205 C.ar    1  UNL1       -0.0398
     19 C           2.3986   -3.2695    0.5366 C.ar    1  UNL1       -0.0586
     20 C           1.4869   -2.8907   -1.6271 C.ar    1  UNL1        0.0279
     21 C          -2.6752    1.4543    0.7318 C.3     1  UNL1        0.0021
     22 C           2.0352   -3.7708   -0.7083 C.ar    1  UNL1       -0.0436
     23 C          -2.4082   -0.0039    0.4688 C.ar    1  UNL1        0.0756
     24 C          -2.3267   -1.0430    1.3696 C.ar    1  UNL1        0.1353
     25 C          -2.0569   -2.2866    0.7287 C.ar    1  UNL1       -0.0124
     26 C          -1.9427   -2.1508   -0.6372 C.ar    1  UNL1       -0.0203
     27 C          -1.7750   -1.7615    3.5683 C.3     1  UNL1        0.0788
     28 H          -1.8964    3.0220    1.7656 H       1  UNL1        0.2017
     29 H          -1.6586    1.5273    2.4842 H       1  UNL1        0.2017
     30 H           2.0834    1.8968    1.4769 H       1  UNL1        0.0302
     31 H           2.6010    0.2383    1.8785 H       1  UNL1        0.0302
     32 H           4.6369    1.6291    2.4657 H       1  UNL1        0.0293
     33 H           4.4653    3.0484    1.5180 H       1  UNL1        0.0293
     34 H           4.4274   -0.5217   -0.6355 H       1  UNL1        0.0293
     35 H           4.6127   -0.7389    1.0527 H       1  UNL1        0.0293
     36 H           1.0594    2.2516   -0.8707 H       1  UNL1        0.0296
     37 H           0.8746    0.8247   -1.9025 H       1  UNL1        0.0296
     38 H           6.8441    1.7313    1.7787 H       1  UNL1        0.0266
     39 H           6.4830    2.6431    0.3623 H       1  UNL1        0.0266
     40 H           6.3834    0.7140   -0.8713 H       1  UNL1        0.0266
     41 H           6.8570   -0.1844    0.5201 H       1  UNL1        0.0266
     42 H          -0.0089   -0.0399    1.6640 H       1  UNL1        0.0326
     43 H          -0.7025    0.0887    0.0539 H       1  UNL1        0.0326
     44 H           3.2463    0.5437   -2.0149 H       1  UNL1        0.0560
     45 H           2.8212    2.1815   -2.5004 H       1  UNL1        0.0560
     46 H           0.3788    2.3813    1.6638 H       1  UNL1        0.0814
     47 H          -0.3422    2.4885    0.0726 H       1  UNL1        0.0814
     48 H           2.4681   -1.5285    1.7377 H       1  UNL1        0.0636
     49 H           2.8100   -3.8949    1.2470 H       1  UNL1        0.0619
     50 H           1.2162   -3.2617   -2.5513 H       1  UNL1        0.0829
     51 H          -2.6752    1.9798   -0.2003 H       1  UNL1        0.0873
     52 H          -3.6240    1.5353    1.2198 H       1  UNL1        0.0873
     53 H           2.1696   -4.7673   -0.9406 H       1  UNL1        0.0633
     54 H          -1.9585   -3.1838    1.2292 H       1  UNL1        0.0659
     55 H          -1.7488   -2.9341   -1.2805 H       1  UNL1        0.0694
     56 H          -1.9955   -1.5126    4.5854 H       1  UNL1        0.0660
     57 H          -0.7233   -1.6635    3.3971 H       1  UNL1        0.0660
     58 H          -2.0754   -2.7701    3.3748 H       1  UNL1        0.0660
@<TRIPOS>UNITY_ATOM_ATTR
5 1
charge 1
@<TRIPOS>BOND
     1     1    23   ar
     2     1    26   ar
     3     2     6    1
     4     2    15    1
     5     3    24    1
     6     3    27    1
     7     4    16   ar
     8     4    20   ar
     9     5    17    1
    10     5    21    1
    11     5    28    1
    12     5    29    1
    13     6     8    1
    14     6     9    1
    15     6    10    1
    16     7     8    1
    17     7    11    1
    18     7    14    1
    19     7    16    1
    20     8    30    1
    21     8    31    1
    22     9    12    1
    23     9    32    1
    24     9    33    1
    25    10    13    1
    26    10    34    1
    27    10    35    1
    28    11    15    1
    29    11    36    1
    30    11    37    1
    31    12    13    1
    32    12    38    1
    33    12    39    1
    34    13    40    1
    35    13    41    1
    36    14    17    1
    37    14    42    1
    38    14    43    1
    39    15    44    1
    40    15    45    1
    41    16    18   ar
    42    17    46    1
    43    17    47    1
    44    18    19   ar
    45    18    48    1
    46    19    22   ar
    47    19    49    1
    48    20    22   ar
    49    20    50    1
    50    21    23    1
    51    21    51    1
    52    21    52    1
    53    22    53    1
    54    23    24   ar
    55    24    25   ar
    56    25    26   ar
    57    25    54    1
    58    26    55    1
    59    27    56    1
    60    27    57    1
    61    27    58    1
@<TRIPOS>MOLECULE
66555030
 58 61 0 0 0
SMALL
GASTEIGER

@<TRIPOS>ATOM
      1 S           2.5805   -1.1246    3.6241 S.2     1  UNL1       -0.0926
      2 O           3.7389    2.0185   -0.6934 O.3     1  UNL1       -0.3733
      3 O          -0.0620   -2.3800    6.1503 O.3     1  UNL1       -0.4941
      4 N           0.7973   -1.7152   -1.0334 N.ar    1  UNL1       -0.2593
      5 N           0.2477   -1.6591    1.8559 N.4     1  UNL1        0.2308
      6 C           3.8512    1.2252    0.4942 C.3     1  UNL1        0.0704
      7 C           1.4231    0.3747    0.1125 C.3     1  UNL1        0.0224
      8 C           2.4643    0.9676    1.1076 C.3     1  UNL1       -0.0124
      9 C           4.7367    2.0144    1.4725 C.3     1  UNL1       -0.0237
     10 C           4.7153   -0.0215    0.2655 C.3     1  UNL1       -0.0237
     11 C           1.4573    1.2951   -1.1383 C.3     1  UNL1       -0.0181
     12 C           6.1616    1.8150    0.9589 C.3     1  UNL1       -0.0504
     13 C           6.1397    0.5192    0.1522 C.3     1  UNL1       -0.0504
     14 C           0.0115    0.4968    0.7385 C.3     1  UNL1       -0.0013
     15 C           2.8671    1.4887   -1.6863 C.3     1  UNL1        0.0492
     16 C           1.6501   -1.1244   -0.1669 C.ar    1  UNL1        0.0478
     17 C          -0.0619   -0.2494    2.0632 C.3     1  UNL1       -0.0325
     18 C           2.6925   -1.7823    0.4660 C.ar    1  UNL1       -0.0398
     19 C           2.8712   -3.1336    0.1916 C.ar    1  UNL1       -0.0586
     20 C           1.0020   -3.0297   -1.2753 C.ar    1  UNL1        0.0279
     21 C           0.1675   -2.3980    3.1079 C.3     1  UNL1        0.0021
     22 C           2.0142   -3.7766   -0.6946 C.ar    1  UNL1       -0.0436
     23 C           1.1214   -1.8575    4.1398 C.ar    1  UNL1        0.0756
     24 C           1.0004   -1.8587    5.5122 C.ar    1  UNL1        0.1353
     25 C           2.1203   -1.2494    6.1484 C.ar    1  UNL1       -0.0124
     26 C           3.0545   -0.8061    5.2384 C.ar    1  UNL1       -0.0203
     27 C           0.1523   -2.9359    7.4552 C.3     1  UNL1        0.0788
     28 H           1.1919   -1.7417    1.4791 H       1  UNL1        0.2017
     29 H          -0.4317   -2.0495    1.2028 H       1  UNL1        0.2017
     30 H           2.0834    1.8968    1.4769 H       1  UNL1        0.0302
     31 H           2.6010    0.2383    1.8785 H       1  UNL1        0.0302
     32 H           4.6369    1.6291    2.4657 H       1  UNL1        0.0293
     33 H           4.4653    3.0484    1.5180 H       1  UNL1        0.0293
     34 H           4.4274   -0.5217   -0.6355 H       1  UNL1        0.0293
     35 H           4.6127   -0.7389    1.0527 H       1  UNL1        0.0293
     36 H           1.0594    2.2516   -0.8707 H       1  UNL1        0.0296
     37 H           0.8746    0.8247   -1.9025 H       1  UNL1        0.0296
     38 H           6.8441    1.7313    1.7787 H       1  UNL1        0.0266
     39 H           6.4830    2.6431    0.3623 H       1  UNL1        0.0266
     40 H           6.3834    0.7140   -0.8713 H       1  UNL1        0.0266
     41 H           6.8570   -0.1844    0.5201 H       1  UNL1        0.0266
     42 H          -0.7081    0.0833    0.0632 H       1  UNL1        0.0326
     43 H          -0.1948    1.5314    0.9172 H       1  UNL1        0.0326
     44 H           3.2463    0.5437   -2.0149 H       1  UNL1        0.0560
     45 H           2.8212    2.1815   -2.5004 H       1  UNL1        0.0560
     46 H           0.6443    0.1721    2.7476 H       1  UNL1        0.0814
     47 H          -1.0503   -0.1608    2.4635 H       1  UNL1        0.0814
     48 H           3.3166   -1.2850    1.1204 H       1  UNL1        0.0636
     49 H           3.6368   -3.6573    0.6439 H       1  UNL1        0.0619
     50 H           0.3649   -3.5059   -1.9329 H       1  UNL1        0.0829
     51 H           0.4058   -3.4241    2.9201 H       1  UNL1        0.0873
     52 H          -0.8268   -2.2970    3.4899 H       1  UNL1        0.0873
     53 H           2.1285   -4.7787   -0.9131 H       1  UNL1        0.0633
     54 H           2.2198   -1.1516    7.1709 H       1  UNL1        0.0659
     55 H           3.9362   -0.3373    5.4988 H       1  UNL1        0.0694
     56 H          -0.7732   -3.3110    7.8395 H       1  UNL1        0.0660
     57 H           0.5285   -2.1768    8.1088 H       1  UNL1        0.0660
     58 H           0.8615   -3.7345    7.3906 H       1  UNL1        0.0660
@<TRIPOS>UNITY_ATOM_ATTR
5 1
charge 1
@<TRIPOS>BOND
     1     1    23   ar
     2     1    26   ar
     3     2     6    1
     4     2    15    1
     5     3    24    1
     6     3    27    1
     7     4    16   ar
     8     4    20   ar
     9     5    17    1
    10     5    21    1
    11     5    28    1
    12     5    29    1
    13     6     8    1
    14     6     9    1
    15     6    10    1
    16     7     8    1
    17     7    11    1
    18     7    14    1
    19     7    16    1
    20     8    30    1
    21     8    31    1
    22     9    12    1
    23     9    32    1
    24     9    33    1
    25    10    13    1
    26    10    34    1
    27    10    35    1
    28    11    15    1
    29    11    36    1
    30    11    37    1
    31    12    13    1
    32    12    38    1
    33    12    39    1
    34    13    40    1
    35    13    41    1
    36    14    17    1
    37    14    42    1
    38    14    43    1
    39    15    44    1
    40    15    45    1
    41    16    18   ar
    42    17    46    1
    43    17    47    1
    44    18    19   ar
    45    18    48    1
    46    19    22   ar
    47    19    49    1
    48    20    22   ar
    49    20    50    1
    50    21    23    1
    51    21    51    1
    52    21    52    1
    53    22    53    1
    54    23    24   ar
    55    24    25   ar
    56    25    26   ar
    57    25    54    1
    58    26    55    1
    59    27    56    1
    60    27    57    1
    61    27    58    1
@<TRIPOS>MOLECULE
66555030
 58 61 0 0 0
SMALL
GASTEIGER

@<TRIPOS>ATOM
      1 S          -3.5513    4.3270   -0.2990 S.2     1  UNL1       -0.0926
      2 O           3.7389    2.0185   -0.6934 O.3     1  UNL1       -0.3733
      3 O           0.1766    5.0077    0.4623 O.3     1  UNL1       -0.4941
      4 N           2.8473   -1.4685   -0.6918 N.ar    1  UNL1       -0.2593
      5 N          -1.6674    2.0414    1.6033 N.4     1  UNL1        0.2308
      6 C           3.8512    1.2252    0.4942 C.3     1  UNL1        0.0704
      7 C           1.4231    0.3747    0.1125 C.3     1  UNL1        0.0224
      8 C           2.4643    0.9676    1.1076 C.3     1  UNL1       -0.0124
      9 C           4.7367    2.0144    1.4725 C.3     1  UNL1       -0.0237
     10 C           4.7153   -0.0215    0.2655 C.3     1  UNL1       -0.0237
     11 C           1.4573    1.2951   -1.1383 C.3     1  UNL1       -0.0181
     12 C           6.1616    1.8150    0.9589 C.3     1  UNL1       -0.0504
     13 C           6.1397    0.5192    0.1522 C.3     1  UNL1       -0.0504
     14 C           0.0115    0.4968    0.7385 C.3     1  UNL1       -0.0013
     15 C           2.8671    1.4887   -1.6863 C.3     1  UNL1        0.0492
     16 C           1.6501   -1.1244   -0.1669 C.ar    1  UNL1        0.0478
     17 C          -0.3430    1.9539    0.9995 C.3     1  UNL1       -0.0325
     18 C           0.6425   -2.0294    0.1261 C.ar    1  UNL1       -0.0398
     19 C           0.8792   -3.3741   -0.1364 C.ar    1  UNL1       -0.0586
     20 C           3.0409   -2.7846   -0.9337 C.ar    1  UNL1        0.0279
     21 C          -2.0362    3.4286    1.8475 C.3     1  UNL1        0.0021
     22 C           2.0987   -3.7672   -0.6762 C.ar    1  UNL1       -0.0436
     23 C          -2.0811    4.2294    0.5733 C.ar    1  UNL1        0.0756
     24 C          -1.0694    4.9370   -0.0379 C.ar    1  UNL1        0.1353
     25 C          -1.5074    5.5679   -1.2380 C.ar    1  UNL1       -0.0124
     26 C          -2.8367    5.3183   -1.4984 C.ar    1  UNL1       -0.0203
     27 C           1.1401    5.7878   -0.2593 C.3     1  UNL1        0.0788
     28 H          -1.6646    1.5356    2.4891 H       1  UNL1        0.2017
     29 H          -2.3460    1.6317    0.9615 H       1  UNL1        0.2017
     30 H           2.0834    1.8968    1.4769 H       1  UNL1        0.0302
     31 H           2.6010    0.2383    1.8785 H       1  UNL1        0.0302
     32 H           4.6369    1.6291    2.4657 H       1  UNL1        0.0293
     33 H           4.4653    3.0484    1.5180 H       1  UNL1        0.0293
     34 H           4.4274   -0.5217   -0.6355 H       1  UNL1        0.0293
     35 H           4.6127   -0.7389    1.0527 H       1  UNL1        0.0293
     36 H           1.0594    2.2516   -0.8707 H       1  UNL1        0.0296
     37 H           0.8746    0.8247   -1.9025 H       1  UNL1        0.0296
     38 H           6.8441    1.7313    1.7787 H       1  UNL1        0.0266
     39 H           6.4830    2.6431    0.3623 H       1  UNL1        0.0266
     40 H           6.3834    0.7140   -0.8713 H       1  UNL1        0.0266
     41 H           6.8570   -0.1844    0.5201 H       1  UNL1        0.0266
     42 H          -0.0089   -0.0399    1.6640 H       1  UNL1        0.0326
     43 H          -0.7025    0.0887    0.0539 H       1  UNL1        0.0326
     44 H           3.2463    0.5437   -2.0149 H       1  UNL1        0.0560
     45 H           2.8212    2.1815   -2.5004 H       1  UNL1        0.0560
     46 H           0.3788    2.3813    1.6638 H       1  UNL1        0.0814
     47 H          -0.3422    2.4885    0.0726 H       1  UNL1        0.0814
     48 H          -0.2552   -1.7152    0.5266 H       1  UNL1        0.0636
     49 H           0.1525   -4.0777    0.0686 H       1  UNL1        0.0619
     50 H           3.9463   -3.0751   -1.3349 H       1  UNL1        0.0829
     51 H          -1.3164    3.8671    2.5067 H       1  UNL1        0.0873
     52 H          -3.0140    3.4406    2.2818 H       1  UNL1        0.0873
     53 H           2.2959   -4.7597   -0.8788 H       1  UNL1        0.0633
     54 H          -0.9000    6.1442   -1.8413 H       1  UNL1        0.0659
     55 H          -3.3425    5.6855   -2.3196 H       1  UNL1        0.0694
     56 H           2.0802    5.7544    0.2507 H       1  UNL1        0.0660
     57 H           0.8038    6.8017   -0.3212 H       1  UNL1        0.0660
     58 H           1.2551    5.3894   -1.2457 H       1  UNL1        0.0660
@<TRIPOS>UNITY_ATOM_ATTR
5 1
charge 1
@<TRIPOS>BOND
     1     1    23   ar
     2     1    26   ar
     3     2     6    1
     4     2    15    1
     5     3    24    1
     6     3    27    1
     7     4    16   ar
     8     4    20   ar
     9     5    17    1
    10     5    21    1
    11     5    28    1
    12     5    29    1
    13     6     8    1
    14     6     9    1
    15     6    10    1
    16     7     8    1
    17     7    11    1
    18     7    14    1
    19     7    16    1
    20     8    30    1
    21     8    31    1
    22     9    12    1
    23     9    32    1
    24     9    33    1
    25    10    13    1
    26    10    34    1
    27    10    35    1
    28    11    15    1
    29    11    36    1
    30    11    37    1
    31    12    13    1
    32    12    38    1
    33    12    39    1
    34    13    40    1
    35    13    41    1
    36    14    17    1
    37    14    42    1
    38    14    43    1
    39    15    44    1
    40    15    45    1
    41    16    18   ar
    42    17    46    1
    43    17    47    1
    44    18    19   ar
    45    18    48    1
    46    19    22   ar
    47    19    49    1
    48    20    22   ar
    49    20    50    1
    50    21    23    1
    51    21    51    1
    52    21    52    1
    53    22    53    1
    54    23    24   ar
    55    24    25   ar
    56    25    26   ar
    57    25    54    1
    58    26    55    1
    59    27    56    1
    60    27    57    1
    61    27    58    1
@<TRIPOS>MOLECULE
66555030
 58 61 0 0 0
SMALL
GASTEIGER

@<TRIPOS>ATOM
      1 S          -1.2323   -4.0870   -3.1566 S.2     1  UNL1       -0.0926
      2 O           3.7389    2.0185   -0.6934 O.3     1  UNL1       -0.3733
      3 O          -1.6881   -4.3889    0.6698 O.3     1  UNL1       -0.4941
      4 N           1.8907   -1.4719   -1.4509 N.ar    1  UNL1       -0.2593
      5 N          -0.7778   -1.4999   -0.4201 N.4     1  UNL1        0.2308
      6 C           3.8512    1.2252    0.4942 C.3     1  UNL1        0.0704
      7 C           1.4231    0.3747    0.1125 C.3     1  UNL1        0.0224
      8 C           2.4643    0.9676    1.1076 C.3     1  UNL1       -0.0124
      9 C           4.7367    2.0144    1.4725 C.3     1  UNL1       -0.0237
     10 C           4.7153   -0.0215    0.2655 C.3     1  UNL1       -0.0237
     11 C           1.4573    1.2951   -1.1383 C.3     1  UNL1       -0.0181
     12 C           6.1616    1.8150    0.9589 C.3     1  UNL1       -0.0504
     13 C           6.1397    0.5192    0.1522 C.3     1  UNL1       -0.0504
     14 C           0.0115    0.4968    0.7385 C.3     1  UNL1       -0.0013
     15 C           2.8671    1.4887   -1.6863 C.3     1  UNL1        0.0492
     16 C           1.6501   -1.1244   -0.1669 C.ar    1  UNL1        0.0478
     17 C          -1.0463   -0.0856   -0.1884 C.3     1  UNL1       -0.0325
     18 C           1.5996   -2.0257    0.8843 C.ar    1  UNL1       -0.0398
     19 C           1.8099   -3.3703    0.5992 C.ar    1  UNL1       -0.0586
     20 C           2.0900   -2.7877   -1.6896 C.ar    1  UNL1        0.0279
     21 C          -1.7684   -2.0760   -1.3184 C.3     1  UNL1        0.0021
     22 C           2.0605   -3.7667   -0.7097 C.ar    1  UNL1       -0.0436
     23 C          -1.5214   -3.5415   -1.5594 C.ar    1  UNL1        0.0756
     24 C          -1.4891   -4.5732   -0.6470 C.ar    1  UNL1        0.1353
     25 C          -1.2230   -5.8279   -1.2675 C.ar    1  UNL1       -0.0124
     26 C          -1.0624   -5.7075   -2.6303 C.ar    1  UNL1       -0.0203
     27 C          -1.6159   -5.5408    1.5215 C.3     1  UNL1        0.0788
     28 H          -0.8065   -1.9956    0.4708 H       1  UNL1        0.2017
     29 H           0.1432   -1.5909   -0.8488 H       1  UNL1        0.2017
     30 H           2.0834    1.8968    1.4769 H       1  UNL1        0.0302
     31 H           2.6010    0.2383    1.8785 H       1  UNL1        0.0302
     32 H           4.6369    1.6291    2.4657 H       1  UNL1        0.0293
     33 H           4.4653    3.0484    1.5180 H       1  UNL1        0.0293
     34 H           4.4274   -0.5217   -0.6355 H       1  UNL1        0.0293
     35 H           4.6127   -0.7389    1.0527 H       1  UNL1        0.0293
     36 H           1.0594    2.2516   -0.8707 H       1  UNL1        0.0296
     37 H           0.8746    0.8247   -1.9025 H       1  UNL1        0.0296
     38 H           6.8441    1.7313    1.7787 H       1  UNL1        0.0266
     39 H           6.4830    2.6431    0.3623 H       1  UNL1        0.0266
     40 H           6.3834    0.7140   -0.8713 H       1  UNL1        0.0266
     41 H           6.8570   -0.1844    0.5201 H       1  UNL1        0.0266
     42 H          -0.2061    1.5298    0.9131 H       1  UNL1        0.0326
     43 H          -0.0026   -0.0489    1.6588 H       1  UNL1        0.0326
     44 H           3.2463    0.5437   -2.0149 H       1  UNL1        0.0560
     45 H           2.8212    2.1815   -2.5004 H       1  UNL1        0.0560
     46 H          -2.0110    0.0235    0.2613 H       1  UNL1        0.0814
     47 H          -1.0219    0.4356   -1.1225 H       1  UNL1        0.0814
     48 H           1.4119   -1.7091    1.8484 H       1  UNL1        0.0636
     49 H           1.7800   -4.0712    1.3561 H       1  UNL1        0.0619
     50 H           2.2755   -3.0808   -2.6615 H       1  UNL1        0.0829
     51 H          -1.7282   -1.5597   -2.2548 H       1  UNL1        0.0873
     52 H          -2.7306   -1.9722   -0.8621 H       1  UNL1        0.0873
     53 H           2.2196   -4.7591   -0.9440 H       1  UNL1        0.0633
     54 H          -1.1582   -6.7219   -0.7561 H       1  UNL1        0.0659
     55 H          -0.8632   -6.5006   -3.2599 H       1  UNL1        0.0694
     56 H          -1.7931   -5.2468    2.5350 H       1  UNL1        0.0660
     57 H          -0.6444   -5.9823    1.4428 H       1  UNL1        0.0660
     58 H          -2.3565   -6.2528    1.2220 H       1  UNL1        0.0660
@<TRIPOS>UNITY_ATOM_ATTR
5 1
charge 1
@<TRIPOS>BOND
     1     1    23   ar
     2     1    26   ar
     3     2     6    1
     4     2    15    1
     5     3    24    1
     6     3    27    1
     7     4    16   ar
     8     4    20   ar
     9     5    17    1
    10     5    21    1
    11     5    28    1
    12     5    29    1
    13     6     8    1
    14     6     9    1
    15     6    10    1
    16     7     8    1
    17     7    11    1
    18     7    14    1
    19     7    16    1
    20     8    30    1
    21     8    31    1
    22     9    12    1
    23     9    32    1
    24     9    33    1
    25    10    13    1
    26    10    34    1
    27    10    35    1
    28    11    15    1
    29    11    36    1
    30    11    37    1
    31    12    13    1
    32    12    38    1
    33    12    39    1
    34    13    40    1
    35    13    41    1
    36    14    17    1
    37    14    42    1
    38    14    43    1
    39    15    44    1
    40    15    45    1
    41    16    18   ar
    42    17    46    1
    43    17    47    1
    44    18    19   ar
    45    18    48    1
    46    19    22   ar
    47    19    49    1
    48    20    22   ar
    49    20    50    1
    50    21    23    1
    51    21    51    1
    52    21    52    1
    53    22    53    1
    54    23    24   ar
    55    24    25   ar
    56    25    26   ar
    57    25    54    1
    58    26    55    1
    59    27    56    1
    60    27    57    1
    61    27    58    1
@<TRIPOS>MOLECULE
66555030
 58 61 0 0 0
SMALL
GASTEIGER

@<TRIPOS>ATOM
      1 S          -1.5891   -1.0720    4.8010 S.2     1  UNL1       -0.0926
      2 O           3.7389    2.0185   -0.6934 O.3     1  UNL1       -0.3733
      3 O          -2.2229   -4.2473    2.6901 O.3     1  UNL1       -0.4941
      4 N           0.5529   -1.8606   -0.4523 N.ar    1  UNL1       -0.2593
      5 N           0.2477   -1.6591    1.8559 N.4     1  UNL1        0.2308
      6 C           3.8512    1.2252    0.4942 C.3     1  UNL1        0.0704
      7 C           1.4231    0.3747    0.1125 C.3     1  UNL1        0.0224
      8 C           2.4643    0.9676    1.1076 C.3     1  UNL1       -0.0124
      9 C           4.7367    2.0144    1.4725 C.3     1  UNL1       -0.0237
     10 C           4.7153   -0.0215    0.2655 C.3     1  UNL1       -0.0237
     11 C           1.4573    1.2951   -1.1383 C.3     1  UNL1       -0.0181
     12 C           6.1616    1.8150    0.9589 C.3     1  UNL1       -0.0504
     13 C           6.1397    0.5192    0.1522 C.3     1  UNL1       -0.0504
     14 C           0.0115    0.4968    0.7385 C.3     1  UNL1       -0.0013
     15 C           2.8671    1.4887   -1.6863 C.3     1  UNL1        0.0492
     16 C           1.6501   -1.1244   -0.1669 C.ar    1  UNL1        0.0478
     17 C          -0.0619   -0.2494    2.0632 C.3     1  UNL1       -0.0325
     18 C           2.9364   -1.6370   -0.1153 C.ar    1  UNL1       -0.0398
     19 C           3.1075   -2.9925   -0.3735 C.ar    1  UNL1       -0.0586
     20 C           0.7583   -3.1743   -0.6974 C.ar    1  UNL1        0.0279
     21 C           0.1675   -2.3980    3.1079 C.3     1  UNL1        0.0021
     22 C           2.0028   -3.7827   -0.6710 C.ar    1  UNL1       -0.0436
     23 C          -1.2117   -2.3354    3.7085 C.ar    1  UNL1        0.0756
     24 C          -2.2802   -3.1814    3.5075 C.ar    1  UNL1        0.1353
     25 C          -3.4238   -2.7867    4.2601 C.ar    1  UNL1       -0.0124
     26 C          -3.1859   -1.6546    5.0077 C.ar    1  UNL1       -0.0203
     27 C          -0.9514   -4.8896    2.5220 C.3     1  UNL1        0.0788
     28 H           1.1919   -1.7417    1.4791 H       1  UNL1        0.2017
     29 H          -0.4317   -2.0495    1.2028 H       1  UNL1        0.2017
     30 H           2.0834    1.8968    1.4769 H       1  UNL1        0.0302
     31 H           2.6010    0.2383    1.8785 H       1  UNL1        0.0302
     32 H           4.6369    1.6291    2.4657 H       1  UNL1        0.0293
     33 H           4.4653    3.0484    1.5180 H       1  UNL1        0.0293
     34 H           4.4274   -0.5217   -0.6355 H       1  UNL1        0.0293
     35 H           4.6127   -0.7389    1.0527 H       1  UNL1        0.0293
     36 H           1.0594    2.2516   -0.8707 H       1  UNL1        0.0296
     37 H           0.8746    0.8247   -1.9025 H       1  UNL1        0.0296
     38 H           6.8441    1.7313    1.7787 H       1  UNL1        0.0266
     39 H           6.4830    2.6431    0.3623 H       1  UNL1        0.0266
     40 H           6.3834    0.7140   -0.8713 H       1  UNL1        0.0266
     41 H           6.8570   -0.1844    0.5201 H       1  UNL1        0.0266
     42 H          -0.7081    0.0833    0.0632 H       1  UNL1        0.0326
     43 H          -0.1948    1.5314    0.9172 H       1  UNL1        0.0326
     44 H           3.2463    0.5437   -2.0149 H       1  UNL1        0.0560
     45 H           2.8212    2.1815   -2.5004 H       1  UNL1        0.0560
     46 H           0.6443    0.1721    2.7476 H       1  UNL1        0.0814
     47 H          -1.0503   -0.1608    2.4635 H       1  UNL1        0.0814
     48 H           3.7420   -1.0318    0.1077 H       1  UNL1        0.0636
     49 H           4.0506   -3.4104   -0.3443 H       1  UNL1        0.0619
     50 H          -0.0624   -3.7598   -0.9176 H       1  UNL1        0.0829
     51 H           0.8665   -1.9799    3.8019 H       1  UNL1        0.0873
     52 H           0.3943   -3.4234    2.9033 H       1  UNL1        0.0873
     53 H           2.1066   -4.7908   -0.8661 H       1  UNL1        0.0633
     54 H          -4.3247   -3.2900    4.2467 H       1  UNL1        0.0659
     55 H          -3.8873   -1.2098    5.6202 H       1  UNL1        0.0694
     56 H          -1.0550   -5.7156    1.8497 H       1  UNL1        0.0660
     57 H          -0.6021   -5.2427    3.4698 H       1  UNL1        0.0660
     58 H          -0.2484   -4.1895    2.1212 H       1  UNL1        0.0660
@<TRIPOS>UNITY_ATOM_ATTR
5 1
charge 1
@<TRIPOS>BOND
     1     1    23   ar
     2     1    26   ar
     3     2     6    1
     4     2    15    1
     5     3    24    1
     6     3    27    1
     7     4    16   ar
     8     4    20   ar
     9     5    17    1
    10     5    21    1
    11     5    28    1
    12     5    29    1
    13     6     8    1
    14     6     9    1
    15     6    10    1
    16     7     8    1
    17     7    11    1
    18     7    14    1
    19     7    16    1
    20     8    30    1
    21     8    31    1
    22     9    12    1
    23     9    32    1
    24     9    33    1
    25    10    13    1
    26    10    34    1
    27    10    35    1
    28    11    15    1
    29    11    36    1
    30    11    37    1
    31    12    13    1
    32    12    38    1
    33    12    39    1
    34    13    40    1
    35    13    41    1
    36    14    17    1
    37    14    42    1
    38    14    43    1
    39    15    44    1
    40    15    45    1
    41    16    18   ar
    42    17    46    1
    43    17    47    1
    44    18    19   ar
    45    18    48    1
    46    19    22   ar
    47    19    49    1
    48    20    22   ar
    49    20    50    1
    50    21    23    1
    51    21    51    1
    52    21    52    1
    53    22    53    1
    54    23    24   ar
    55    24    25   ar
    56    25    26   ar
    57    25    54    1
    58    26    55    1
    59    27    56    1
    60    27    57    1
    61    27    58    1
@<TRIPOS>MOLECULE
66555030
 58 61 0 0 0
SMALL
GASTEIGER

@<TRIPOS>ATOM
      1 S          -2.8070    1.5960    0.2942 S.2     1  UNL1       -0.0926
      2 O           3.7389    2.0185   -0.6934 O.3     1  UNL1       -0.3733
      3 O          -0.0706    3.6807    2.0566 O.3     1  UNL1       -0.4941
      4 N           1.5734   -1.9572    0.8951 N.ar    1  UNL1       -0.2593
      5 N          -1.4031   -0.1338    2.6236 N.4     1  UNL1        0.2308
      6 C           3.8512    1.2252    0.4942 C.3     1  UNL1        0.0704
      7 C           1.4231    0.3747    0.1125 C.3     1  UNL1        0.0224
      8 C           2.4643    0.9676    1.1076 C.3     1  UNL1       -0.0124
      9 C           4.7367    2.0144    1.4725 C.3     1  UNL1       -0.0237
     10 C           4.7153   -0.0215    0.2655 C.3     1  UNL1       -0.0237
     11 C           1.4573    1.2951   -1.1383 C.3     1  UNL1       -0.0181
     12 C           6.1616    1.8150    0.9589 C.3     1  UNL1       -0.0504
     13 C           6.1397    0.5192    0.1522 C.3     1  UNL1       -0.0504
     14 C           0.0115    0.4968    0.7385 C.3     1  UNL1       -0.0013
     15 C           2.8671    1.4887   -1.6863 C.3     1  UNL1        0.0492
     16 C           1.6501   -1.1244   -0.1669 C.ar    1  UNL1        0.0478
     17 C          -0.0619   -0.2494    2.0632 C.3     1  UNL1       -0.0325
     18 C           1.9150   -1.5407   -1.4617 C.ar    1  UNL1       -0.0398
     19 C           2.1137   -2.8994   -1.6805 C.ar    1  UNL1       -0.0586
     20 C           1.7723   -3.2707    0.6437 C.ar    1  UNL1        0.0279
     21 C          -1.7559    1.2618    2.8424 C.3     1  UNL1        0.0021
     22 C           2.0424   -3.7875   -0.6130 C.ar    1  UNL1       -0.0436
     23 C          -1.7467    2.0501    1.5597 C.ar    1  UNL1        0.0756
     24 C          -0.9769    3.1416    1.2225 C.ar    1  UNL1        0.1353
     25 C          -1.2617    3.6114   -0.0922 C.ar    1  UNL1       -0.0124
     26 C          -2.2380    2.8611   -0.7096 C.ar    1  UNL1       -0.0203
     27 C           0.1806    5.0887    1.9464 C.3     1  UNL1        0.0788
     28 H          -1.4370   -0.6305    3.5138 H       1  UNL1        0.2017
     29 H          -2.0678   -0.5387    1.9644 H       1  UNL1        0.2017
     30 H           2.0834    1.8968    1.4769 H       1  UNL1        0.0302
     31 H           2.6010    0.2383    1.8785 H       1  UNL1        0.0302
     32 H           4.6369    1.6291    2.4657 H       1  UNL1        0.0293
     33 H           4.4653    3.0484    1.5180 H       1  UNL1        0.0293
     34 H           4.4274   -0.5217   -0.6355 H       1  UNL1        0.0293
     35 H           4.6127   -0.7389    1.0527 H       1  UNL1        0.0293
     36 H           1.0594    2.2516   -0.8707 H       1  UNL1        0.0296
     37 H           0.8746    0.8247   -1.9025 H       1  UNL1        0.0296
     38 H           6.8441    1.7313    1.7787 H       1  UNL1        0.0266
     39 H           6.4830    2.6431    0.3623 H       1  UNL1        0.0266
     40 H           6.3834    0.7140   -0.8713 H       1  UNL1        0.0266
     41 H           6.8570   -0.1844    0.5201 H       1  UNL1        0.0266
     42 H          -0.7081    0.0833    0.0632 H       1  UNL1        0.0326
     43 H          -0.1948    1.5314    0.9172 H       1  UNL1        0.0326
     44 H           3.2463    0.5437   -2.0149 H       1  UNL1        0.0560
     45 H           2.8212    2.1815   -2.5004 H       1  UNL1        0.0560
     46 H           0.1675   -1.2821    1.9020 H       1  UNL1        0.0814
     47 H           0.6435    0.1751    2.7466 H       1  UNL1        0.0814
     48 H           1.9632   -0.8638   -2.2391 H       1  UNL1        0.0636
     49 H           2.3131   -3.2473   -2.6314 H       1  UNL1        0.0619
     50 H           1.7197   -3.9288    1.4369 H       1  UNL1        0.0829
     51 H          -1.0500    1.6950    3.5199 H       1  UNL1        0.0873
     52 H          -2.7466    1.2945    3.2452 H       1  UNL1        0.0873
     53 H           2.1863   -4.7999   -0.7525 H       1  UNL1        0.0633
     54 H          -0.7918    4.4190   -0.5304 H       1  UNL1        0.0659
     55 H          -2.5855    3.0403   -1.6647 H       1  UNL1        0.0694
     56 H           0.9182    5.3768    2.6661 H       1  UNL1        0.0660
     57 H          -0.7254    5.6279    2.1288 H       1  UNL1        0.0660
     58 H           0.5364    5.3116    0.9622 H       1  UNL1        0.0660
@<TRIPOS>UNITY_ATOM_ATTR
5 1
charge 1
@<TRIPOS>BOND
     1     1    23   ar
     2     1    26   ar
     3     2     6    1
     4     2    15    1
     5     3    24    1
     6     3    27    1
     7     4    16   ar
     8     4    20   ar
     9     5    17    1
    10     5    21    1
    11     5    28    1
    12     5    29    1
    13     6     8    1
    14     6     9    1
    15     6    10    1
    16     7     8    1
    17     7    11    1
    18     7    14    1
    19     7    16    1
    20     8    30    1
    21     8    31    1
    22     9    12    1
    23     9    32    1
    24     9    33    1
    25    10    13    1
    26    10    34    1
    27    10    35    1
    28    11    15    1
    29    11    36    1
    30    11    37    1
    31    12    13    1
    32    12    38    1
    33    12    39    1
    34    13    40    1
    35    13    41    1
    36    14    17    1
    37    14    42    1
    38    14    43    1
    39    15    44    1
    40    15    45    1
    41    16    18   ar
    42    17    46    1
    43    17    47    1
    44    18    19   ar
    45    18    48    1
    46    19    22   ar
    47    19    49    1
    48    20    22   ar
    49    20    50    1
    50    21    23    1
    51    21    51    1
    52    21    52    1
    53    22    53    1
    54    23    24   ar
    55    24    25   ar
    56    25    26   ar
    57    25    54    1
    58    26    55    1
    59    27    56    1
    60    27    57    1
    61    27    58    1
@<TRIPOS>MOLECULE
66555030
 58 61 0 0 0
SMALL
GASTEIGER

@<TRIPOS>ATOM
      1 S           2.7047   -2.5031    4.2313 S.2     1  UNL1       -0.0926
      2 O           3.7389    2.0185   -0.6934 O.3     1  UNL1       -0.3733
      3 O          -0.2568   -0.2142    5.1960 O.3     1  UNL1       -0.4941
      4 N           0.7973   -1.7152   -1.0334 N.ar    1  UNL1       -0.2593
      5 N           0.2477   -1.6591    1.8559 N.4     1  UNL1        0.2308
      6 C           3.8512    1.2252    0.4942 C.3     1  UNL1        0.0704
      7 C           1.4231    0.3747    0.1125 C.3     1  UNL1        0.0224
      8 C           2.4643    0.9676    1.1076 C.3     1  UNL1       -0.0124
      9 C           4.7367    2.0144    1.4725 C.3     1  UNL1       -0.0237
     10 C           4.7153   -0.0215    0.2655 C.3     1  UNL1       -0.0237
     11 C           1.4573    1.2951   -1.1383 C.3     1  UNL1       -0.0181
     12 C           6.1616    1.8150    0.9589 C.3     1  UNL1       -0.0504
     13 C           6.1397    0.5192    0.1522 C.3     1  UNL1       -0.0504
     14 C           0.0115    0.4968    0.7385 C.3     1  UNL1       -0.0013
     15 C           2.8671    1.4887   -1.6863 C.3     1  UNL1        0.0492
     16 C           1.6501   -1.1244   -0.1669 C.ar    1  UNL1        0.0478
     17 C          -0.0619   -0.2494    2.0632 C.3     1  UNL1       -0.0325
     18 C           2.6925   -1.7823    0.4660 C.ar    1  UNL1       -0.0398
     19 C           2.8712   -3.1336    0.1916 C.ar    1  UNL1       -0.0586
     20 C           1.0020   -3.0297   -1.2753 C.ar    1  UNL1        0.0279
     21 C           0.1675   -2.3980    3.1079 C.3     1  UNL1        0.0021
     22 C           2.0142   -3.7766   -0.6946 C.ar    1  UNL1       -0.0436
     23 C           1.1214   -1.8575    4.1398 C.ar    1  UNL1        0.0756
     24 C           0.9113   -0.8692    5.0763 C.ar    1  UNL1        0.1353
     25 C           2.0657   -0.6388    5.8791 C.ar    1  UNL1       -0.0124
     26 C           3.1138   -1.4598    5.5259 C.ar    1  UNL1       -0.0203
     27 C          -0.2147    1.1420    5.6615 C.3     1  UNL1        0.0788
     28 H           1.1919   -1.7417    1.4791 H       1  UNL1        0.2017
     29 H          -0.4317   -2.0495    1.2028 H       1  UNL1        0.2017
     30 H           2.0834    1.8968    1.4769 H       1  UNL1        0.0302
     31 H           2.6010    0.2383    1.8785 H       1  UNL1        0.0302
     32 H           4.6369    1.6291    2.4657 H       1  UNL1        0.0293
     33 H           4.4653    3.0484    1.5180 H       1  UNL1        0.0293
     34 H           4.4274   -0.5217   -0.6355 H       1  UNL1        0.0293
     35 H           4.6127   -0.7389    1.0527 H       1  UNL1        0.0293
     36 H           1.0594    2.2516   -0.8707 H       1  UNL1        0.0296
     37 H           0.8746    0.8247   -1.9025 H       1  UNL1        0.0296
     38 H           6.8441    1.7313    1.7787 H       1  UNL1        0.0266
     39 H           6.4830    2.6431    0.3623 H       1  UNL1        0.0266
     40 H           6.3834    0.7140   -0.8713 H       1  UNL1        0.0266
     41 H           6.8570   -0.1844    0.5201 H       1  UNL1        0.0266
     42 H          -0.7081    0.0833    0.0632 H       1  UNL1        0.0326
     43 H          -0.1948    1.5314    0.9172 H       1  UNL1        0.0326
     44 H           3.2463    0.5437   -2.0149 H       1  UNL1        0.0560
     45 H           2.8212    2.1815   -2.5004 H       1  UNL1        0.0560
     46 H           0.6443    0.1721    2.7476 H       1  UNL1        0.0814
     47 H          -1.0503   -0.1608    2.4635 H       1  UNL1        0.0814
     48 H           3.3166   -1.2850    1.1204 H       1  UNL1        0.0636
     49 H           3.6368   -3.6573    0.6439 H       1  UNL1        0.0619
     50 H           0.3649   -3.5059   -1.9329 H       1  UNL1        0.0829
     51 H           0.4058   -3.4241    2.9201 H       1  UNL1        0.0873
     52 H          -0.8268   -2.2970    3.4899 H       1  UNL1        0.0873
     53 H           2.1285   -4.7787   -0.9131 H       1  UNL1        0.0633
     54 H           2.1112    0.0610    6.6362 H       1  UNL1        0.0659
     55 H           4.0368   -1.4475    5.9873 H       1  UNL1        0.0694
     56 H          -1.2091    1.5344    5.7072 H       1  UNL1        0.0660
     57 H           0.3712    1.7321    4.9881 H       1  UNL1        0.0660
     58 H           0.2254    1.1709    6.6364 H       1  UNL1        0.0660
@<TRIPOS>UNITY_ATOM_ATTR
5 1
charge 1
@<TRIPOS>BOND
     1     1    23   ar
     2     1    26   ar
     3     2     6    1
     4     2    15    1
     5     3    24    1
     6     3    27    1
     7     4    16   ar
     8     4    20   ar
     9     5    17    1
    10     5    21    1
    11     5    28    1
    12     5    29    1
    13     6     8    1
    14     6     9    1
    15     6    10    1
    16     7     8    1
    17     7    11    1
    18     7    14    1
    19     7    16    1
    20     8    30    1
    21     8    31    1
    22     9    12    1
    23     9    32    1
    24     9    33    1
    25    10    13    1
    26    10    34    1
    27    10    35    1
    28    11    15    1
    29    11    36    1
    30    11    37    1
    31    12    13    1
    32    12    38    1
    33    12    39    1
    34    13    40    1
    35    13    41    1
    36    14    17    1
    37    14    42    1
    38    14    43    1
    39    15    44    1
    40    15    45    1
    41    16    18   ar
    42    17    46    1
    43    17    47    1
    44    18    19   ar
    45    18    48    1
    46    19    22   ar
    47    19    49    1
    48    20    22   ar
    49    20    50    1
    50    21    23    1
    51    21    51    1
    52    21    52    1
    53    22    53    1
    54    23    24   ar
    55    24    25   ar
    56    25    26   ar
    57    25    54    1
    58    26    55    1
    59    27    56    1
    60    27    57    1
    61    27    58    1
@<TRIPOS>MOLECULE
66555030
 58 61 0 0 0
SMALL
GASTEIGER

@<TRIPOS>ATOM
      1 S          -2.3783   -1.0972    1.7863 S.2     1  UNL1       -0.0926
      2 O           3.7389    2.0185   -0.6934 O.3     1  UNL1       -0.3733
      3 O          -2.1452    0.0178   -1.9073 O.3     1  UNL1       -0.4941
      4 N           1.8907   -1.4719   -1.4509 N.ar    1  UNL1       -0.2593
      5 N          -1.6674    2.0414    1.6033 N.4     1  UNL1        0.2308
      6 C           3.8512    1.2252    0.4942 C.3     1  UNL1        0.0704
      7 C           1.4231    0.3747    0.1125 C.3     1  UNL1        0.0224
      8 C           2.4643    0.9676    1.1076 C.3     1  UNL1       -0.0124
      9 C           4.7367    2.0144    1.4725 C.3     1  UNL1       -0.0237
     10 C           4.7153   -0.0215    0.2655 C.3     1  UNL1       -0.0237
     11 C           1.4573    1.2951   -1.1383 C.3     1  UNL1       -0.0181
     12 C           6.1616    1.8150    0.9589 C.3     1  UNL1       -0.0504
     13 C           6.1397    0.5192    0.1522 C.3     1  UNL1       -0.0504
     14 C           0.0115    0.4968    0.7385 C.3     1  UNL1       -0.0013
     15 C           2.8671    1.4887   -1.6863 C.3     1  UNL1        0.0492
     16 C           1.6501   -1.1244   -0.1669 C.ar    1  UNL1        0.0478
     17 C          -0.3430    1.9539    0.9995 C.3     1  UNL1       -0.0325
     18 C           1.5996   -2.0257    0.8843 C.ar    1  UNL1       -0.0398
     19 C           1.8099   -3.3703    0.5992 C.ar    1  UNL1       -0.0586
     20 C           2.0900   -2.7877   -1.6896 C.ar    1  UNL1        0.0279
     21 C          -2.6752    1.4543    0.7318 C.3     1  UNL1        0.0021
     22 C           2.0605   -3.7667   -0.7097 C.ar    1  UNL1       -0.0436
     23 C          -2.4082   -0.0039    0.4688 C.ar    1  UNL1        0.0756
     24 C          -2.1705   -0.6353   -0.7324 C.ar    1  UNL1        0.1353
     25 C          -1.9614   -2.0352   -0.5686 C.ar    1  UNL1       -0.0124
     26 C          -2.0470   -2.4203    0.7511 C.ar    1  UNL1       -0.0203
     27 C          -2.9641    1.1886   -2.0357 C.3     1  UNL1        0.0788
     28 H          -1.8964    3.0220    1.7656 H       1  UNL1        0.2017
     29 H          -1.6586    1.5273    2.4842 H       1  UNL1        0.2017
     30 H           2.0834    1.8968    1.4769 H       1  UNL1        0.0302
     31 H           2.6010    0.2383    1.8785 H       1  UNL1        0.0302
     32 H           4.6369    1.6291    2.4657 H       1  UNL1        0.0293
     33 H           4.4653    3.0484    1.5180 H       1  UNL1        0.0293
     34 H           4.4274   -0.5217   -0.6355 H       1  UNL1        0.0293
     35 H           4.6127   -0.7389    1.0527 H       1  UNL1        0.0293
     36 H           1.0594    2.2516   -0.8707 H       1  UNL1        0.0296
     37 H           0.8746    0.8247   -1.9025 H       1  UNL1        0.0296
     38 H           6.8441    1.7313    1.7787 H       1  UNL1        0.0266
     39 H           6.4830    2.6431    0.3623 H       1  UNL1        0.0266
     40 H           6.3834    0.7140   -0.8713 H       1  UNL1        0.0266
     41 H           6.8570   -0.1844    0.5201 H       1  UNL1        0.0266
     42 H          -0.0089   -0.0399    1.6640 H       1  UNL1        0.0326
     43 H          -0.7025    0.0887    0.0539 H       1  UNL1        0.0326
     44 H           3.2463    0.5437   -2.0149 H       1  UNL1        0.0560
     45 H           2.8212    2.1815   -2.5004 H       1  UNL1        0.0560
     46 H           0.3788    2.3813    1.6638 H       1  UNL1        0.0814
     47 H          -0.3422    2.4885    0.0726 H       1  UNL1        0.0814
     48 H           1.4119   -1.7091    1.8484 H       1  UNL1        0.0636
     49 H           1.7800   -4.0712    1.3561 H       1  UNL1        0.0619
     50 H           2.2755   -3.0808   -2.6615 H       1  UNL1        0.0829
     51 H          -2.6752    1.9798   -0.2003 H       1  UNL1        0.0873
     52 H          -3.6240    1.5353    1.2198 H       1  UNL1        0.0873
     53 H           2.2196   -4.7591   -0.9440 H       1  UNL1        0.0633
     54 H          -1.7685   -2.6844   -1.3474 H       1  UNL1        0.0659
     55 H          -1.9258   -3.3918    1.0775 H       1  UNL1        0.0694
     56 H          -2.8447    1.6016   -3.0155 H       1  UNL1        0.0660
     57 H          -2.6687    1.9123   -1.3050 H       1  UNL1        0.0660
     58 H          -3.9897    0.9250   -1.8822 H       1  UNL1        0.0660
@<TRIPOS>UNITY_ATOM_ATTR
5 1
charge 1
@<TRIPOS>BOND
     1     1    23   ar
     2     1    26   ar
     3     2     6    1
     4     2    15    1
     5     3    24    1
     6     3    27    1
     7     4    16   ar
     8     4    20   ar
     9     5    17    1
    10     5    21    1
    11     5    28    1
    12     5    29    1
    13     6     8    1
    14     6     9    1
    15     6    10    1
    16     7     8    1
    17     7    11    1
    18     7    14    1
    19     7    16    1
    20     8    30    1
    21     8    31    1
    22     9    12    1
    23     9    32    1
    24     9    33    1
    25    10    13    1
    26    10    34    1
    27    10    35    1
    28    11    15    1
    29    11    36    1
    30    11    37    1
    31    12    13    1
    32    12    38    1
    33    12    39    1
    34    13    40    1
    35    13    41    1
    36    14    17    1
    37    14    42    1
    38    14    43    1
    39    15    44    1
    40    15    45    1
    41    16    18   ar
    42    17    46    1
    43    17    47    1
    44    18    19   ar
    45    18    48    1
    46    19    22   ar
    47    19    49    1
    48    20    22   ar
    49    20    50    1
    50    21    23    1
    51    21    51    1
    52    21    52    1
    53    22    53    1
    54    23    24   ar
    55    24    25   ar
    56    25    26   ar
    57    25    54    1
    58    26    55    1
    59    27    56    1
    60    27    57    1
    61    27    58    1
@<TRIPOS>MOLECULE
66555030
 58 61 0 0 0
SMALL
GASTEIGER

@<TRIPOS>ATOM
      1 S          -2.5639   -0.8437    2.3890 S.2     1  UNL1       -0.0926
      2 O           3.7389    2.0185   -0.6934 O.3     1  UNL1       -0.3733
      3 O          -3.0497   -4.1222    0.4000 O.3     1  UNL1       -0.4941
      4 N           2.6903   -1.7085    0.4687 N.ar    1  UNL1       -0.2593
      5 N           0.2477   -1.6591    1.8559 N.4     1  UNL1        0.2308
      6 C           3.8512    1.2252    0.4942 C.3     1  UNL1        0.0704
      7 C           1.4231    0.3747    0.1125 C.3     1  UNL1        0.0224
      8 C           2.4643    0.9676    1.1076 C.3     1  UNL1       -0.0124
      9 C           4.7367    2.0144    1.4725 C.3     1  UNL1       -0.0237
     10 C           4.7153   -0.0215    0.2655 C.3     1  UNL1       -0.0237
     11 C           1.4573    1.2951   -1.1383 C.3     1  UNL1       -0.0181
     12 C           6.1616    1.8150    0.9589 C.3     1  UNL1       -0.0504
     13 C           6.1397    0.5192    0.1522 C.3     1  UNL1       -0.0504
     14 C           0.0115    0.4968    0.7385 C.3     1  UNL1       -0.0013
     15 C           2.8671    1.4887   -1.6863 C.3     1  UNL1        0.0492
     16 C           1.6501   -1.1244   -0.1669 C.ar    1  UNL1        0.0478
     17 C          -0.0619   -0.2494    2.0632 C.3     1  UNL1       -0.0325
     18 C           0.7985   -1.7894   -1.0344 C.ar    1  UNL1       -0.0398
     19 C           1.0295   -3.1412   -1.2641 C.ar    1  UNL1       -0.0586
     20 C           2.8838   -3.0235    0.2205 C.ar    1  UNL1        0.0279
     21 C          -0.6861   -2.2631    0.9161 C.3     1  UNL1        0.0021
     22 C           2.0898   -3.7774   -0.6284 C.ar    1  UNL1       -0.0436
     23 C          -2.1091   -2.1638    1.3977 C.ar    1  UNL1        0.0756
     24 C          -3.1647   -3.0149    1.1539 C.ar    1  UNL1        0.1353
     25 C          -4.3626   -2.5770    1.7890 C.ar    1  UNL1       -0.0124
     26 C          -4.1770   -1.4084    2.4941 C.ar    1  UNL1       -0.0203
     27 C          -3.8989   -5.2340    0.7166 C.3     1  UNL1        0.0788
     28 H           0.1872   -2.1491    2.7484 H       1  UNL1        0.2017
     29 H           1.1899   -1.7329    1.4722 H       1  UNL1        0.2017
     30 H           2.0834    1.8968    1.4769 H       1  UNL1        0.0302
     31 H           2.6010    0.2383    1.8785 H       1  UNL1        0.0302
     32 H           4.6369    1.6291    2.4657 H       1  UNL1        0.0293
     33 H           4.4653    3.0484    1.5180 H       1  UNL1        0.0293
     34 H           4.4274   -0.5217   -0.6355 H       1  UNL1        0.0293
     35 H           4.6127   -0.7389    1.0527 H       1  UNL1        0.0293
     36 H           1.0594    2.2516   -0.8707 H       1  UNL1        0.0296
     37 H           0.8746    0.8247   -1.9025 H       1  UNL1        0.0296
     38 H           6.8441    1.7313    1.7787 H       1  UNL1        0.0266
     39 H           6.4830    2.6431    0.3623 H       1  UNL1        0.0266
     40 H           6.3834    0.7140   -0.8713 H       1  UNL1        0.0266
     41 H           6.8570   -0.1844    0.5201 H       1  UNL1        0.0266
     42 H          -0.7081    0.0833    0.0632 H       1  UNL1        0.0326
     43 H          -0.1948    1.5314    0.9172 H       1  UNL1        0.0326
     44 H           3.2463    0.5437   -2.0149 H       1  UNL1        0.0560
     45 H           2.8212    2.1815   -2.5004 H       1  UNL1        0.0560
     46 H           0.6443    0.1721    2.7476 H       1  UNL1        0.0814
     47 H          -1.0503   -0.1608    2.4635 H       1  UNL1        0.0814
     48 H           0.0175   -1.2970   -1.4954 H       1  UNL1        0.0636
     49 H           0.4163   -3.6701   -1.9039 H       1  UNL1        0.0619
     50 H           3.6714   -3.4946    0.6925 H       1  UNL1        0.0829
     51 H          -0.4337   -3.2956    0.7927 H       1  UNL1        0.0873
     52 H          -0.6120   -1.7348   -0.0114 H       1  UNL1        0.0873
     53 H           2.2794   -4.7799   -0.7841 H       1  UNL1        0.0633
     54 H          -5.2635   -3.0767    1.7279 H       1  UNL1        0.0659
     55 H          -4.9224   -0.9296    3.0235 H       1  UNL1        0.0694
     56 H          -3.6999   -6.0388    0.0401 H       1  UNL1        0.0660
     57 H          -4.9231   -4.9375    0.6267 H       1  UNL1        0.0660
     58 H          -3.7072   -5.5551    1.7191 H       1  UNL1        0.0660
@<TRIPOS>UNITY_ATOM_ATTR
5 1
charge 1
@<TRIPOS>BOND
     1     1    23   ar
     2     1    26   ar
     3     2     6    1
     4     2    15    1
     5     3    24    1
     6     3    27    1
     7     4    16   ar
     8     4    20   ar
     9     5    17    1
    10     5    21    1
    11     5    28    1
    12     5    29    1
    13     6     8    1
    14     6     9    1
    15     6    10    1
    16     7     8    1
    17     7    11    1
    18     7    14    1
    19     7    16    1
    20     8    30    1
    21     8    31    1
    22     9    12    1
    23     9    32    1
    24     9    33    1
    25    10    13    1
    26    10    34    1
    27    10    35    1
    28    11    15    1
    29    11    36    1
    30    11    37    1
    31    12    13    1
    32    12    38    1
    33    12    39    1
    34    13    40    1
    35    13    41    1
    36    14    17    1
    37    14    42    1
    38    14    43    1
    39    15    44    1
    40    15    45    1
    41    16    18   ar
    42    17    46    1
    43    17    47    1
    44    18    19   ar
    45    18    48    1
    46    19    22   ar
    47    19    49    1
    48    20    22   ar
    49    20    50    1
    50    21    23    1
    51    21    51    1
    52    21    52    1
    53    22    53    1
    54    23    24   ar
    55    24    25   ar
    56    25    26   ar
    57    25    54    1
    58    26    55    1
    59    27    56    1
    60    27    57    1
    61    27    58    1
@<TRIPOS>MOLECULE
66555030
 58 61 0 0 0
SMALL
GASTEIGER

@<TRIPOS>ATOM
      1 S          -4.3894   -3.0910   -0.2099 S.2     1  UNL1       -0.0926
      2 O           3.7389    2.0185   -0.6934 O.3     1  UNL1       -0.3733
      3 O          -1.0212   -1.9439   -1.7197 O.3     1  UNL1       -0.4941
      4 N           1.5734   -1.9572    0.8951 N.ar    1  UNL1       -0.2593
      5 N          -2.3661    0.0561    0.4148 N.4     1  UNL1        0.2308
      6 C           3.8512    1.2252    0.4942 C.3     1  UNL1        0.0704
      7 C           1.4231    0.3747    0.1125 C.3     1  UNL1        0.0224
      8 C           2.4643    0.9676    1.1076 C.3     1  UNL1       -0.0124
      9 C           4.7367    2.0144    1.4725 C.3     1  UNL1       -0.0237
     10 C           4.7153   -0.0215    0.2655 C.3     1  UNL1       -0.0237
     11 C           1.4573    1.2951   -1.1383 C.3     1  UNL1       -0.0181
     12 C           6.1616    1.8150    0.9589 C.3     1  UNL1       -0.0504
     13 C           6.1397    0.5192    0.1522 C.3     1  UNL1       -0.0504
     14 C           0.0115    0.4968    0.7385 C.3     1  UNL1       -0.0013
     15 C           2.8671    1.4887   -1.6863 C.3     1  UNL1        0.0492
     16 C           1.6501   -1.1244   -0.1669 C.ar    1  UNL1        0.0478
     17 C          -1.0463   -0.0856   -0.1884 C.3     1  UNL1       -0.0325
     18 C           1.9150   -1.5407   -1.4617 C.ar    1  UNL1       -0.0398
     19 C           2.1137   -2.8994   -1.6805 C.ar    1  UNL1       -0.0586
     20 C           1.7723   -3.2707    0.6437 C.ar    1  UNL1        0.0279
     21 C          -3.3944   -0.5095   -0.4471 C.3     1  UNL1        0.0021
     22 C           2.0424   -3.7875   -0.6130 C.ar    1  UNL1       -0.0436
     23 C          -3.1775   -1.9798   -0.6879 C.ar    1  UNL1        0.0756
     24 C          -2.0969   -2.6101   -1.2651 C.ar    1  UNL1        0.1353
     25 C          -2.2667   -4.0239   -1.3157 C.ar    1  UNL1       -0.0124
     26 C          -3.4700   -4.4203   -0.7752 C.ar    1  UNL1       -0.0203
     27 C           0.0351   -2.7116   -2.3135 C.3     1  UNL1        0.0788
     28 H          -2.5614    1.0463    0.5623 H       1  UNL1        0.2017
     29 H          -2.3739   -0.4445    1.3035 H       1  UNL1        0.2017
     30 H           2.0834    1.8968    1.4769 H       1  UNL1        0.0302
     31 H           2.6010    0.2383    1.8785 H       1  UNL1        0.0302
     32 H           4.6369    1.6291    2.4657 H       1  UNL1        0.0293
     33 H           4.4653    3.0484    1.5180 H       1  UNL1        0.0293
     34 H           4.4274   -0.5217   -0.6355 H       1  UNL1        0.0293
     35 H           4.6127   -0.7389    1.0527 H       1  UNL1        0.0293
     36 H           1.0594    2.2516   -0.8707 H       1  UNL1        0.0296
     37 H           0.8746    0.8247   -1.9025 H       1  UNL1        0.0296
     38 H           6.8441    1.7313    1.7787 H       1  UNL1        0.0266
     39 H           6.4830    2.6431    0.3623 H       1  UNL1        0.0266
     40 H           6.3834    0.7140   -0.8713 H       1  UNL1        0.0266
     41 H           6.8570   -0.1844    0.5201 H       1  UNL1        0.0266
     42 H          -0.2061    1.5298    0.9131 H       1  UNL1        0.0326
     43 H          -0.0026   -0.0489    1.6588 H       1  UNL1        0.0326
     44 H           3.2463    0.5437   -2.0149 H       1  UNL1        0.0560
     45 H           2.8212    2.1815   -2.5004 H       1  UNL1        0.0560
     46 H          -1.0252    0.4356   -1.1226 H       1  UNL1        0.0814
     47 H          -0.8415   -1.1235   -0.3488 H       1  UNL1        0.0814
     48 H           1.9632   -0.8638   -2.2391 H       1  UNL1        0.0636
     49 H           2.3131   -3.2473   -2.6314 H       1  UNL1        0.0619
     50 H           1.7197   -3.9288    1.4369 H       1  UNL1        0.0829
     51 H          -3.3775    0.0014   -1.3871 H       1  UNL1        0.0873
     52 H          -4.3393   -0.3888    0.0402 H       1  UNL1        0.0873
     53 H           2.1863   -4.7999   -0.7525 H       1  UNL1        0.0633
     54 H          -1.5699   -4.6745   -1.7109 H       1  UNL1        0.0659
     55 H          -3.7808   -5.4027   -0.7178 H       1  UNL1        0.0694
     56 H           0.8198   -2.0554   -2.6275 H       1  UNL1        0.0660
     57 H          -0.3441   -3.2449   -3.1601 H       1  UNL1        0.0660
     58 H           0.4174   -3.4070   -1.5958 H       1  UNL1        0.0660
@<TRIPOS>UNITY_ATOM_ATTR
5 1
charge 1
@<TRIPOS>BOND
     1     1    23   ar
     2     1    26   ar
     3     2     6    1
     4     2    15    1
     5     3    24    1
     6     3    27    1
     7     4    16   ar
     8     4    20   ar
     9     5    17    1
    10     5    21    1
    11     5    28    1
    12     5    29    1
    13     6     8    1
    14     6     9    1
    15     6    10    1
    16     7     8    1
    17     7    11    1
    18     7    14    1
    19     7    16    1
    20     8    30    1
    21     8    31    1
    22     9    12    1
    23     9    32    1
    24     9    33    1
    25    10    13    1
    26    10    34    1
    27    10    35    1
    28    11    15    1
    29    11    36    1
    30    11    37    1
    31    12    13    1
    32    12    38    1
    33    12    39    1
    34    13    40    1
    35    13    41    1
    36    14    17    1
    37    14    42    1
    38    14    43    1
    39    15    44    1
    40    15    45    1
    41    16    18   ar
    42    17    46    1
    43    17    47    1
    44    18    19   ar
    45    18    48    1
    46    19    22   ar
    47    19    49    1
    48    20    22   ar
    49    20    50    1
    50    21    23    1
    51    21    51    1
    52    21    52    1
    53    22    53    1
    54    23    24   ar
    55    24    25   ar
    56    25    26   ar
    57    25    54    1
    58    26    55    1
    59    27    56    1
    60    27    57    1
    61    27    58    1
@<TRIPOS>MOLECULE
66555030
 58 61 0 0 0
SMALL
GASTEIGER

@<TRIPOS>ATOM
      1 S          -3.3063    2.1708    4.9590 S.2     1  UNL1       -0.0926
      2 O           3.7389    2.0185   -0.6934 O.3     1  UNL1       -0.3733
      3 O          -4.4568    0.3711    1.7375 O.3     1  UNL1       -0.4941
      4 N           0.7973   -1.7152   -1.0334 N.ar    1  UNL1       -0.2593
      5 N          -1.4031   -0.1338    2.6236 N.4     1  UNL1        0.2308
      6 C           3.8512    1.2252    0.4942 C.3     1  UNL1        0.0704
      7 C           1.4231    0.3747    0.1125 C.3     1  UNL1        0.0224
      8 C           2.4643    0.9676    1.1076 C.3     1  UNL1       -0.0124
      9 C           4.7367    2.0144    1.4725 C.3     1  UNL1       -0.0237
     10 C           4.7153   -0.0215    0.2655 C.3     1  UNL1       -0.0237
     11 C           1.4573    1.2951   -1.1383 C.3     1  UNL1       -0.0181
     12 C           6.1616    1.8150    0.9589 C.3     1  UNL1       -0.0504
     13 C           6.1397    0.5192    0.1522 C.3     1  UNL1       -0.0504
     14 C           0.0115    0.4968    0.7385 C.3     1  UNL1       -0.0013
     15 C           2.8671    1.4887   -1.6863 C.3     1  UNL1        0.0492
     16 C           1.6501   -1.1244   -0.1669 C.ar    1  UNL1        0.0478
     17 C          -0.0619   -0.2494    2.0632 C.3     1  UNL1       -0.0325
     18 C           2.6925   -1.7823    0.4660 C.ar    1  UNL1       -0.0398
     19 C           2.8712   -3.1336    0.1916 C.ar    1  UNL1       -0.0586
     20 C           1.0020   -3.0297   -1.2753 C.ar    1  UNL1        0.0279
     21 C          -1.7559    1.2618    2.8424 C.3     1  UNL1        0.0021
     22 C           2.0142   -3.7766   -0.6946 C.ar    1  UNL1       -0.0436
     23 C          -3.1315    1.4056    3.4372 C.ar    1  UNL1        0.0756
     24 C          -4.3419    0.9961    2.9224 C.ar    1  UNL1        0.1353
     25 C          -5.4271    1.3153    3.7888 C.ar    1  UNL1       -0.0124
     26 C          -5.0049    1.9561    4.9326 C.ar    1  UNL1       -0.0203
     27 C          -3.4864    0.6777    0.7266 C.3     1  UNL1        0.0788
     28 H          -1.4370   -0.6305    3.5138 H       1  UNL1        0.2017
     29 H          -2.0678   -0.5387    1.9644 H       1  UNL1        0.2017
     30 H           2.0834    1.8968    1.4769 H       1  UNL1        0.0302
     31 H           2.6010    0.2383    1.8785 H       1  UNL1        0.0302
     32 H           4.6369    1.6291    2.4657 H       1  UNL1        0.0293
     33 H           4.4653    3.0484    1.5180 H       1  UNL1        0.0293
     34 H           4.4274   -0.5217   -0.6355 H       1  UNL1        0.0293
     35 H           4.6127   -0.7389    1.0527 H       1  UNL1        0.0293
     36 H           1.0594    2.2516   -0.8707 H       1  UNL1        0.0296
     37 H           0.8746    0.8247   -1.9025 H       1  UNL1        0.0296
     38 H           6.8441    1.7313    1.7787 H       1  UNL1        0.0266
     39 H           6.4830    2.6431    0.3623 H       1  UNL1        0.0266
     40 H           6.3834    0.7140   -0.8713 H       1  UNL1        0.0266
     41 H           6.8570   -0.1844    0.5201 H       1  UNL1        0.0266
     42 H          -0.7081    0.0833    0.0632 H       1  UNL1        0.0326
     43 H          -0.1948    1.5314    0.9172 H       1  UNL1        0.0326
     44 H           3.2463    0.5437   -2.0149 H       1  UNL1        0.0560
     45 H           2.8212    2.1815   -2.5004 H       1  UNL1        0.0560
     46 H           0.1675   -1.2821    1.9020 H       1  UNL1        0.0814
     47 H           0.6435    0.1751    2.7466 H       1  UNL1        0.0814
     48 H           3.3166   -1.2850    1.1204 H       1  UNL1        0.0636
     49 H           3.6368   -3.6573    0.6439 H       1  UNL1        0.0619
     50 H           0.3649   -3.5059   -1.9329 H       1  UNL1        0.0829
     51 H          -1.7285    1.7767    1.9049 H       1  UNL1        0.0873
     52 H          -1.0511    1.6782    3.5314 H       1  UNL1        0.0873
     53 H           2.1285   -4.7787   -0.9131 H       1  UNL1        0.0633
     54 H          -6.4137    1.0925    3.5835 H       1  UNL1        0.0659
     55 H          -5.6377    2.2699    5.6850 H       1  UNL1        0.0694
     56 H          -3.6998    0.1116   -0.1560 H       1  UNL1        0.0660
     57 H          -2.5089    0.4277    1.0830 H       1  UNL1        0.0660
     58 H          -3.5267    1.7224    0.4987 H       1  UNL1        0.0660
@<TRIPOS>UNITY_ATOM_ATTR
5 1
charge 1
@<TRIPOS>BOND
     1     1    23   ar
     2     1    26   ar
     3     2     6    1
     4     2    15    1
     5     3    24    1
     6     3    27    1
     7     4    16   ar
     8     4    20   ar
     9     5    17    1
    10     5    21    1
    11     5    28    1
    12     5    29    1
    13     6     8    1
    14     6     9    1
    15     6    10    1
    16     7     8    1
    17     7    11    1
    18     7    14    1
    19     7    16    1
    20     8    30    1
    21     8    31    1
    22     9    12    1
    23     9    32    1
    24     9    33    1
    25    10    13    1
    26    10    34    1
    27    10    35    1
    28    11    15    1
    29    11    36    1
    30    11    37    1
    31    12    13    1
    32    12    38    1
    33    12    39    1
    34    13    40    1
    35    13    41    1
    36    14    17    1
    37    14    42    1
    38    14    43    1
    39    15    44    1
    40    15    45    1
    41    16    18   ar
    42    17    46    1
    43    17    47    1
    44    18    19   ar
    45    18    48    1
    46    19    22   ar
    47    19    49    1
    48    20    22   ar
    49    20    50    1
    50    21    23    1
    51    21    51    1
    52    21    52    1
    53    22    53    1
    54    23    24   ar
    55    24    25   ar
    56    25    26   ar
    57    25    54    1
    58    26    55    1
    59    27    56    1
    60    27    57    1
    61    27    58    1
@<TRIPOS>MOLECULE
66555030
 58 61 0 0 0
SMALL
GASTEIGER

@<TRIPOS>ATOM
      1 S          -1.3661    3.7961    1.3460 S.2     1  UNL1       -0.0926
      2 O           3.7389    2.0185   -0.6934 O.3     1  UNL1       -0.3733
      3 O          -1.0254    0.2767    2.9075 O.3     1  UNL1       -0.4941
      4 N           2.2078   -1.8488    0.8289 N.ar    1  UNL1       -0.2593
      5 N          -2.3661    0.0561    0.4148 N.4     1  UNL1        0.2308
      6 C           3.8512    1.2252    0.4942 C.3     1  UNL1        0.0704
      7 C           1.4231    0.3747    0.1125 C.3     1  UNL1        0.0224
      8 C           2.4643    0.9676    1.1076 C.3     1  UNL1       -0.0124
      9 C           4.7367    2.0144    1.4725 C.3     1  UNL1       -0.0237
     10 C           4.7153   -0.0215    0.2655 C.3     1  UNL1       -0.0237
     11 C           1.4573    1.2951   -1.1383 C.3     1  UNL1       -0.0181
     12 C           6.1616    1.8150    0.9589 C.3     1  UNL1       -0.0504
     13 C           6.1397    0.5192    0.1522 C.3     1  UNL1       -0.0504
     14 C           0.0115    0.4968    0.7385 C.3     1  UNL1       -0.0013
     15 C           2.8671    1.4887   -1.6863 C.3     1  UNL1        0.0492
     16 C           1.6501   -1.1244   -0.1669 C.ar    1  UNL1        0.0478
     17 C          -1.0463   -0.0856   -0.1884 C.3     1  UNL1       -0.0325
     18 C           1.2807   -1.6492   -1.3950 C.ar    1  UNL1       -0.0398
     19 C           1.4975   -3.0049   -1.6150 C.ar    1  UNL1       -0.0586
     20 C           2.4034   -3.1629    0.5784 C.ar    1  UNL1        0.0279
     21 C          -2.6872    1.4586    0.6381 C.3     1  UNL1        0.0021
     22 C           2.0690   -3.7832   -0.6145 C.ar    1  UNL1       -0.0436
     23 C          -1.6862    2.1256    1.5436 C.ar    1  UNL1        0.0756
     24 C          -0.9440    1.5743    2.5648 C.ar    1  UNL1        0.1353
     25 C          -0.1017    2.5363    3.1935 C.ar    1  UNL1       -0.0124
     26 C          -0.2320    3.7859    2.6288 C.ar    1  UNL1       -0.0203
     27 C           0.1498   -0.3443    3.4467 C.3     1  UNL1        0.0788
     28 H          -2.3797   -0.4360    1.3082 H       1  UNL1        0.2017
     29 H          -3.0591   -0.3399   -0.2203 H       1  UNL1        0.2017
     30 H           2.0834    1.8968    1.4769 H       1  UNL1        0.0302
     31 H           2.6010    0.2383    1.8785 H       1  UNL1        0.0302
     32 H           4.6369    1.6291    2.4657 H       1  UNL1        0.0293
     33 H           4.4653    3.0484    1.5180 H       1  UNL1        0.0293
     34 H           4.4274   -0.5217   -0.6355 H       1  UNL1        0.0293
     35 H           4.6127   -0.7389    1.0527 H       1  UNL1        0.0293
     36 H           1.0594    2.2516   -0.8707 H       1  UNL1        0.0296
     37 H           0.8746    0.8247   -1.9025 H       1  UNL1        0.0296
     38 H           6.8441    1.7313    1.7787 H       1  UNL1        0.0266
     39 H           6.4830    2.6431    0.3623 H       1  UNL1        0.0266
     40 H           6.3834    0.7140   -0.8713 H       1  UNL1        0.0266
     41 H           6.8570   -0.1844    0.5201 H       1  UNL1        0.0266
     42 H          -0.2061    1.5298    0.9131 H       1  UNL1        0.0326
     43 H          -0.0026   -0.0489    1.6588 H       1  UNL1        0.0326
     44 H           3.2463    0.5437   -2.0149 H       1  UNL1        0.0560
     45 H           2.8212    2.1815   -2.5004 H       1  UNL1        0.0560
     46 H          -1.0252    0.4356   -1.1226 H       1  UNL1        0.0814
     47 H          -0.8415   -1.1235   -0.3488 H       1  UNL1        0.0814
     48 H           0.8580   -1.0527   -2.1233 H       1  UNL1        0.0636
     49 H           1.2353   -3.4318   -2.5172 H       1  UNL1        0.0619
     50 H           2.8281   -3.7395    1.3215 H       1  UNL1        0.0829
     51 H          -3.6568    1.5247    1.0857 H       1  UNL1        0.0873
     52 H          -2.6645    1.9589   -0.3075 H       1  UNL1        0.0873
     53 H           2.2387   -4.7913   -0.7560 H       1  UNL1        0.0633
     54 H           0.5317    2.3220    3.9797 H       1  UNL1        0.0659
     55 H           0.2921    4.6178    2.9420 H       1  UNL1        0.0694
     56 H          -0.0598   -1.3690    3.6724 H       1  UNL1        0.0660
     57 H           0.4440    0.1649    4.3407 H       1  UNL1        0.0660
     58 H           0.9420   -0.2919    2.7293 H       1  UNL1        0.0660
@<TRIPOS>UNITY_ATOM_ATTR
5 1
charge 1
@<TRIPOS>BOND
     1     1    23   ar
     2     1    26   ar
     3     2     6    1
     4     2    15    1
     5     3    24    1
     6     3    27    1
     7     4    16   ar
     8     4    20   ar
     9     5    17    1
    10     5    21    1
    11     5    28    1
    12     5    29    1
    13     6     8    1
    14     6     9    1
    15     6    10    1
    16     7     8    1
    17     7    11    1
    18     7    14    1
    19     7    16    1
    20     8    30    1
    21     8    31    1
    22     9    12    1
    23     9    32    1
    24     9    33    1
    25    10    13    1
    26    10    34    1
    27    10    35    1
    28    11    15    1
    29    11    36    1
    30    11    37    1
    31    12    13    1
    32    12    38    1
    33    12    39    1
    34    13    40    1
    35    13    41    1
    36    14    17    1
    37    14    42    1
    38    14    43    1
    39    15    44    1
    40    15    45    1
    41    16    18   ar
    42    17    46    1
    43    17    47    1
    44    18    19   ar
    45    18    48    1
    46    19    22   ar
    47    19    49    1
    48    20    22   ar
    49    20    50    1
    50    21    23    1
    51    21    51    1
    52    21    52    1
    53    22    53    1
    54    23    24   ar
    55    24    25   ar
    56    25    26   ar
    57    25    54    1
    58    26    55    1
    59    27    56    1
    60    27    57    1
    61    27    58    1
@<TRIPOS>MOLECULE
66555030
 58 61 0 0 0
SMALL
GASTEIGER

@<TRIPOS>ATOM
      1 S          -1.3734   -4.6158   -0.3888 S.2     1  UNL1       -0.0926
      2 O           3.7389    2.0185   -0.6934 O.3     1  UNL1       -0.3733
      3 O           1.4760   -4.0236    2.1549 O.3     1  UNL1       -0.4941
      4 N           0.7973   -1.7152   -1.0334 N.ar    1  UNL1       -0.2593
      5 N           0.2477   -1.6591    1.8559 N.4     1  UNL1        0.2308
      6 C           3.8512    1.2252    0.4942 C.3     1  UNL1        0.0704
      7 C           1.4231    0.3747    0.1125 C.3     1  UNL1        0.0224
      8 C           2.4643    0.9676    1.1076 C.3     1  UNL1       -0.0124
      9 C           4.7367    2.0144    1.4725 C.3     1  UNL1       -0.0237
     10 C           4.7153   -0.0215    0.2655 C.3     1  UNL1       -0.0237
     11 C           1.4573    1.2951   -1.1383 C.3     1  UNL1       -0.0181
     12 C           6.1616    1.8150    0.9589 C.3     1  UNL1       -0.0504
     13 C           6.1397    0.5192    0.1522 C.3     1  UNL1       -0.0504
     14 C           0.0115    0.4968    0.7385 C.3     1  UNL1       -0.0013
     15 C           2.8671    1.4887   -1.6863 C.3     1  UNL1        0.0492
     16 C           1.6501   -1.1244   -0.1669 C.ar    1  UNL1        0.0478
     17 C          -0.0619   -0.2494    2.0632 C.3     1  UNL1       -0.0325
     18 C           2.6925   -1.7823    0.4660 C.ar    1  UNL1       -0.0398
     19 C           2.8712   -3.1336    0.1916 C.ar    1  UNL1       -0.0586
     20 C           1.0020   -3.0297   -1.2753 C.ar    1  UNL1        0.0279
     21 C          -0.6861   -2.2631    0.9161 C.3     1  UNL1        0.0021
     22 C           2.0142   -3.7766   -0.6946 C.ar    1  UNL1       -0.0436
     23 C          -0.3964   -3.7245    0.6989 C.ar    1  UNL1        0.0756
     24 C           0.5863   -4.5039    1.2686 C.ar    1  UNL1        0.1353
     25 C           0.5366   -5.8505    0.8056 C.ar    1  UNL1       -0.0124
     26 C          -0.4822   -6.0491   -0.0999 C.ar    1  UNL1       -0.0203
     27 C           2.7764   -4.6282    2.1868 C.3     1  UNL1        0.0788
     28 H           0.1872   -2.1491    2.7484 H       1  UNL1        0.2017
     29 H           1.1899   -1.7329    1.4722 H       1  UNL1        0.2017
     30 H           2.0834    1.8968    1.4769 H       1  UNL1        0.0302
     31 H           2.6010    0.2383    1.8785 H       1  UNL1        0.0302
     32 H           4.6369    1.6291    2.4657 H       1  UNL1        0.0293
     33 H           4.4653    3.0484    1.5180 H       1  UNL1        0.0293
     34 H           4.4274   -0.5217   -0.6355 H       1  UNL1        0.0293
     35 H           4.6127   -0.7389    1.0527 H       1  UNL1        0.0293
     36 H           1.0594    2.2516   -0.8707 H       1  UNL1        0.0296
     37 H           0.8746    0.8247   -1.9025 H       1  UNL1        0.0296
     38 H           6.8441    1.7313    1.7787 H       1  UNL1        0.0266
     39 H           6.4830    2.6431    0.3623 H       1  UNL1        0.0266
     40 H           6.3834    0.7140   -0.8713 H       1  UNL1        0.0266
     41 H           6.8570   -0.1844    0.5201 H       1  UNL1        0.0266
     42 H          -0.7081    0.0833    0.0632 H       1  UNL1        0.0326
     43 H          -0.1948    1.5314    0.9172 H       1  UNL1        0.0326
     44 H           3.2463    0.5437   -2.0149 H       1  UNL1        0.0560
     45 H           2.8212    2.1815   -2.5004 H       1  UNL1        0.0560
     46 H           0.6443    0.1721    2.7476 H       1  UNL1        0.0814
     47 H          -1.0503   -0.1608    2.4635 H       1  UNL1        0.0814
     48 H           3.3166   -1.2850    1.1204 H       1  UNL1        0.0636
     49 H           3.6368   -3.6573    0.6439 H       1  UNL1        0.0619
     50 H           0.3649   -3.5059   -1.9329 H       1  UNL1        0.0829
     51 H          -0.6124   -1.7526   -0.0214 H       1  UNL1        0.0873
     52 H          -1.6710   -2.1772    1.3252 H       1  UNL1        0.0873
     53 H           2.1285   -4.7787   -0.9131 H       1  UNL1        0.0633
     54 H           1.1874   -6.5903    1.1127 H       1  UNL1        0.0659
     55 H          -0.6845   -6.9549   -0.5511 H       1  UNL1        0.0694
     56 H           3.3744   -4.1490    2.9336 H       1  UNL1        0.0660
     57 H           3.2443   -4.5185    1.2307 H       1  UNL1        0.0660
     58 H           2.6806   -5.6682    2.4198 H       1  UNL1        0.0660
@<TRIPOS>UNITY_ATOM_ATTR
5 1
charge 1
@<TRIPOS>BOND
     1     1    23   ar
     2     1    26   ar
     3     2     6    1
     4     2    15    1
     5     3    24    1
     6     3    27    1
     7     4    16   ar
     8     4    20   ar
     9     5    17    1
    10     5    21    1
    11     5    28    1
    12     5    29    1
    13     6     8    1
    14     6     9    1
    15     6    10    1
    16     7     8    1
    17     7    11    1
    18     7    14    1
    19     7    16    1
    20     8    30    1
    21     8    31    1
    22     9    12    1
    23     9    32    1
    24     9    33    1
    25    10    13    1
    26    10    34    1
    27    10    35    1
    28    11    15    1
    29    11    36    1
    30    11    37    1
    31    12    13    1
    32    12    38    1
    33    12    39    1
    34    13    40    1
    35    13    41    1
    36    14    17    1
    37    14    42    1
    38    14    43    1
    39    15    44    1
    40    15    45    1
    41    16    18   ar
    42    17    46    1
    43    17    47    1
    44    18    19   ar
    45    18    48    1
    46    19    22   ar
    47    19    49    1
    48    20    22   ar
    49    20    50    1
    50    21    23    1
    51    21    51    1
    52    21    52    1
    53    22    53    1
    54    23    24   ar
    55    24    25   ar
    56    25    26   ar
    57    25    54    1
    58    26    55    1
    59    27    56    1
    60    27    57    1
    61    27    58    1
@<TRIPOS>MOLECULE
66555030
 58 61 0 0 0
SMALL
GASTEIGER

@<TRIPOS>ATOM
      1 S          -2.7781   -0.6226    1.9321 S.2     1  UNL1       -0.0926
      2 O           3.7389    2.0185   -0.6934 O.3     1  UNL1       -0.3733
      3 O          -2.7609   -4.4721    1.5835 O.3     1  UNL1       -0.4941
      4 N           1.5734   -1.9572    0.8951 N.ar    1  UNL1       -0.2593
      5 N          -0.7778   -1.4999   -0.4201 N.4     1  UNL1        0.2308
      6 C           3.8512    1.2252    0.4942 C.3     1  UNL1        0.0704
      7 C           1.4231    0.3747    0.1125 C.3     1  UNL1        0.0224
      8 C           2.4643    0.9676    1.1076 C.3     1  UNL1       -0.0124
      9 C           4.7367    2.0144    1.4725 C.3     1  UNL1       -0.0237
     10 C           4.7153   -0.0215    0.2655 C.3     1  UNL1       -0.0237
     11 C           1.4573    1.2951   -1.1383 C.3     1  UNL1       -0.0181
     12 C           6.1616    1.8150    0.9589 C.3     1  UNL1       -0.0504
     13 C           6.1397    0.5192    0.1522 C.3     1  UNL1       -0.0504
     14 C           0.0115    0.4968    0.7385 C.3     1  UNL1       -0.0013
     15 C           2.8671    1.4887   -1.6863 C.3     1  UNL1        0.0492
     16 C           1.6501   -1.1244   -0.1669 C.ar    1  UNL1        0.0478
     17 C          -1.0463   -0.0856   -0.1884 C.3     1  UNL1       -0.0325
     18 C           1.9150   -1.5407   -1.4617 C.ar    1  UNL1       -0.0398
     19 C           2.1137   -2.8994   -1.6805 C.ar    1  UNL1       -0.0586
     20 C           1.7723   -3.2707    0.6437 C.ar    1  UNL1        0.0279
     21 C          -0.8145   -2.2469    0.8292 C.3     1  UNL1        0.0021
     22 C           2.0424   -3.7875   -0.6130 C.ar    1  UNL1       -0.0436
     23 C          -2.1618   -2.1593    1.4953 C.ar    1  UNL1        0.0756
     24 C          -3.0280   -3.1774    1.8288 C.ar    1  UNL1        0.1353
     25 C          -4.2134   -2.6891    2.4506 C.ar    1  UNL1       -0.0124
     26 C          -4.2079   -1.3168    2.5690 C.ar    1  UNL1       -0.0203
     27 C          -1.5153   -4.7852    0.9448 C.3     1  UNL1        0.0788
     28 H           0.1454   -1.5998   -0.8421 H       1  UNL1        0.2017
     29 H          -1.4959   -1.8703   -1.0427 H       1  UNL1        0.2017
     30 H           2.0834    1.8968    1.4769 H       1  UNL1        0.0302
     31 H           2.6010    0.2383    1.8785 H       1  UNL1        0.0302
     32 H           4.6369    1.6291    2.4657 H       1  UNL1        0.0293
     33 H           4.4653    3.0484    1.5180 H       1  UNL1        0.0293
     34 H           4.4274   -0.5217   -0.6355 H       1  UNL1        0.0293
     35 H           4.6127   -0.7389    1.0527 H       1  UNL1        0.0293
     36 H           1.0594    2.2516   -0.8707 H       1  UNL1        0.0296
     37 H           0.8746    0.8247   -1.9025 H       1  UNL1        0.0296
     38 H           6.8441    1.7313    1.7787 H       1  UNL1        0.0266
     39 H           6.4830    2.6431    0.3623 H       1  UNL1        0.0266
     40 H           6.3834    0.7140   -0.8713 H       1  UNL1        0.0266
     41 H           6.8570   -0.1844    0.5201 H       1  UNL1        0.0266
     42 H          -0.2061    1.5298    0.9131 H       1  UNL1        0.0326
     43 H          -0.0026   -0.0489    1.6588 H       1  UNL1        0.0326
     44 H           3.2463    0.5437   -2.0149 H       1  UNL1        0.0560
     45 H           2.8212    2.1815   -2.5004 H       1  UNL1        0.0560
     46 H          -2.0110    0.0235    0.2613 H       1  UNL1        0.0814
     47 H          -1.0219    0.4356   -1.1225 H       1  UNL1        0.0814
     48 H           1.9632   -0.8638   -2.2391 H       1  UNL1        0.0636
     49 H           2.3131   -3.2473   -2.6314 H       1  UNL1        0.0619
     50 H           1.7197   -3.9288    1.4369 H       1  UNL1        0.0829
     51 H          -0.0743   -1.8495    1.4918 H       1  UNL1        0.0873
     52 H          -0.6203   -3.2753    0.6068 H       1  UNL1        0.0873
     53 H           2.1863   -4.7999   -0.7525 H       1  UNL1        0.0633
     54 H          -4.9854   -3.2926    2.7743 H       1  UNL1        0.0659
     55 H          -4.9751   -0.7712    2.9918 H       1  UNL1        0.0694
     56 H          -1.4381   -5.8444    0.8135 H       1  UNL1        0.0660
     57 H          -0.7057   -4.4414    1.5541 H       1  UNL1        0.0660
     58 H          -1.4729   -4.3034   -0.0097 H       1  UNL1        0.0660
@<TRIPOS>UNITY_ATOM_ATTR
5 1
charge 1
@<TRIPOS>BOND
     1     1    23   ar
     2     1    26   ar
     3     2     6    1
     4     2    15    1
     5     3    24    1
     6     3    27    1
     7     4    16   ar
     8     4    20   ar
     9     5    17    1
    10     5    21    1
    11     5    28    1
    12     5    29    1
    13     6     8    1
    14     6     9    1
    15     6    10    1
    16     7     8    1
    17     7    11    1
    18     7    14    1
    19     7    16    1
    20     8    30    1
    21     8    31    1
    22     9    12    1
    23     9    32    1
    24     9    33    1
    25    10    13    1
    26    10    34    1
    27    10    35    1
    28    11    15    1
    29    11    36    1
    30    11    37    1
    31    12    13    1
    32    12    38    1
    33    12    39    1
    34    13    40    1
    35    13    41    1
    36    14    17    1
    37    14    42    1
    38    14    43    1
    39    15    44    1
    40    15    45    1
    41    16    18   ar
    42    17    46    1
    43    17    47    1
    44    18    19   ar
    45    18    48    1
    46    19    22   ar
    47    19    49    1
    48    20    22   ar
    49    20    50    1
    50    21    23    1
    51    21    51    1
    52    21    52    1
    53    22    53    1
    54    23    24   ar
    55    24    25   ar
    56    25    26   ar
    57    25    54    1
    58    26    55    1
    59    27    56    1
    60    27    57    1
    61    27    58    1
@<TRIPOS>MOLECULE
66555030
 58 61 0 0 0
SMALL
GASTEIGER

@<TRIPOS>ATOM
      1 S          -1.5551   -4.6224   -0.2318 S.2     1  UNL1       -0.0926
      2 O           3.7389    2.0185   -0.6934 O.3     1  UNL1       -0.3733
      3 O          -1.1819   -3.5478   -3.9259 O.3     1  UNL1       -0.4941
      4 N           1.0096   -1.9957    0.6441 N.ar    1  UNL1       -0.2593
      5 N          -0.7778   -1.4999   -0.4201 N.4     1  UNL1        0.2308
      6 C           3.8512    1.2252    0.4942 C.3     1  UNL1        0.0704
      7 C           1.4231    0.3747    0.1125 C.3     1  UNL1        0.0224
      8 C           2.4643    0.9676    1.1076 C.3     1  UNL1       -0.0124
      9 C           4.7367    2.0144    1.4725 C.3     1  UNL1       -0.0237
     10 C           4.7153   -0.0215    0.2655 C.3     1  UNL1       -0.0237
     11 C           1.4573    1.2951   -1.1383 C.3     1  UNL1       -0.0181
     12 C           6.1616    1.8150    0.9589 C.3     1  UNL1       -0.0504
     13 C           6.1397    0.5192    0.1522 C.3     1  UNL1       -0.0504
     14 C           0.0115    0.4968    0.7385 C.3     1  UNL1       -0.0013
     15 C           2.8671    1.4887   -1.6863 C.3     1  UNL1        0.0492
     16 C           1.6501   -1.1244   -0.1669 C.ar    1  UNL1        0.0478
     17 C          -1.0463   -0.0856   -0.1884 C.3     1  UNL1       -0.0325
     18 C           2.4788   -1.5020   -1.2112 C.ar    1  UNL1       -0.0398
     19 C           2.6617   -2.8617   -1.4377 C.ar    1  UNL1       -0.0586
     20 C           1.2117   -3.3090    0.3936 C.ar    1  UNL1        0.0279
     21 C          -1.7684   -2.0760   -1.3184 C.3     1  UNL1        0.0021
     22 C           2.0195   -3.7888   -0.6246 C.ar    1  UNL1       -0.0436
     23 C          -1.5214   -3.5415   -1.5594 C.ar    1  UNL1        0.0756
     24 C          -1.2575   -4.1890   -2.7465 C.ar    1  UNL1        0.1353
     25 C          -1.0811   -5.5909   -2.5634 C.ar    1  UNL1       -0.0124
     26 C          -1.2165   -5.9615   -1.2437 C.ar    1  UNL1       -0.0203
     27 C          -0.9145   -4.3346   -5.0951 C.3     1  UNL1        0.0788
     28 H          -0.8065   -1.9956    0.4708 H       1  UNL1        0.2017
     29 H           0.1432   -1.5909   -0.8488 H       1  UNL1        0.2017
     30 H           2.0834    1.8968    1.4769 H       1  UNL1        0.0302
     31 H           2.6010    0.2383    1.8785 H       1  UNL1        0.0302
     32 H           4.6369    1.6291    2.4657 H       1  UNL1        0.0293
     33 H           4.4653    3.0484    1.5180 H       1  UNL1        0.0293
     34 H           4.4274   -0.5217   -0.6355 H       1  UNL1        0.0293
     35 H           4.6127   -0.7389    1.0527 H       1  UNL1        0.0293
     36 H           1.0594    2.2516   -0.8707 H       1  UNL1        0.0296
     37 H           0.8746    0.8247   -1.9025 H       1  UNL1        0.0296
     38 H           6.8441    1.7313    1.7787 H       1  UNL1        0.0266
     39 H           6.4830    2.6431    0.3623 H       1  UNL1        0.0266
     40 H           6.3834    0.7140   -0.8713 H       1  UNL1        0.0266
     41 H           6.8570   -0.1844    0.5201 H       1  UNL1        0.0266
     42 H          -0.2061    1.5298    0.9131 H       1  UNL1        0.0326
     43 H          -0.0026   -0.0489    1.6588 H       1  UNL1        0.0326
     44 H           3.2463    0.5437   -2.0149 H       1  UNL1        0.0560
     45 H           2.8212    2.1815   -2.5004 H       1  UNL1        0.0560
     46 H          -2.0110    0.0235    0.2613 H       1  UNL1        0.0814
     47 H          -1.0219    0.4356   -1.1225 H       1  UNL1        0.0814
     48 H           2.9456   -0.7964   -1.8022 H       1  UNL1        0.0636
     49 H           3.2717   -3.1813   -2.2064 H       1  UNL1        0.0619
     50 H           0.7349   -3.9962    0.9981 H       1  UNL1        0.0829
     51 H          -1.7282   -1.5597   -2.2548 H       1  UNL1        0.0873
     52 H          -2.7306   -1.9722   -0.8621 H       1  UNL1        0.0873
     53 H           2.1408   -4.8026   -0.7748 H       1  UNL1        0.0633
     54 H          -0.8759   -6.2512   -3.3296 H       1  UNL1        0.0659
     55 H          -1.1247   -6.9319   -0.9048 H       1  UNL1        0.0694
     56 H          -0.8824   -3.6974   -5.9542 H       1  UNL1        0.0660
     57 H          -1.6887   -5.0626   -5.2198 H       1  UNL1        0.0660
     58 H           0.0270   -4.8307   -4.9836 H       1  UNL1        0.0660
@<TRIPOS>UNITY_ATOM_ATTR
5 1
charge 1
@<TRIPOS>BOND
     1     1    23   ar
     2     1    26   ar
     3     2     6    1
     4     2    15    1
     5     3    24    1
     6     3    27    1
     7     4    16   ar
     8     4    20   ar
     9     5    17    1
    10     5    21    1
    11     5    28    1
    12     5    29    1
    13     6     8    1
    14     6     9    1
    15     6    10    1
    16     7     8    1
    17     7    11    1
    18     7    14    1
    19     7    16    1
    20     8    30    1
    21     8    31    1
    22     9    12    1
    23     9    32    1
    24     9    33    1
    25    10    13    1
    26    10    34    1
    27    10    35    1
    28    11    15    1
    29    11    36    1
    30    11    37    1
    31    12    13    1
    32    12    38    1
    33    12    39    1
    34    13    40    1
    35    13    41    1
    36    14    17    1
    37    14    42    1
    38    14    43    1
    39    15    44    1
    40    15    45    1
    41    16    18   ar
    42    17    46    1
    43    17    47    1
    44    18    19   ar
    45    18    48    1
    46    19    22   ar
    47    19    49    1
    48    20    22   ar
    49    20    50    1
    50    21    23    1
    51    21    51    1
    52    21    52    1
    53    22    53    1
    54    23    24   ar
    55    24    25   ar
    56    25    26   ar
    57    25    54    1
    58    26    55    1
    59    27    56    1
    60    27    57    1
    61    27    58    1
@<TRIPOS>MOLECULE
66555030
 58 61 0 0 0
SMALL
GASTEIGER

@<TRIPOS>ATOM
      1 S          -0.7011    1.3875    5.3772 S.2     1  UNL1       -0.0926
      2 O           3.7389    2.0185   -0.6934 O.3     1  UNL1       -0.3733
      3 O           0.8135   -2.1686    5.3793 O.3     1  UNL1       -0.4941
      4 N           2.2078   -1.8488    0.8289 N.ar    1  UNL1       -0.2593
      5 N          -1.4031   -0.1338    2.6236 N.4     1  UNL1        0.2308
      6 C           3.8512    1.2252    0.4942 C.3     1  UNL1        0.0704
      7 C           1.4231    0.3747    0.1125 C.3     1  UNL1        0.0224
      8 C           2.4643    0.9676    1.1076 C.3     1  UNL1       -0.0124
      9 C           4.7367    2.0144    1.4725 C.3     1  UNL1       -0.0237
     10 C           4.7153   -0.0215    0.2655 C.3     1  UNL1       -0.0237
     11 C           1.4573    1.2951   -1.1383 C.3     1  UNL1       -0.0181
     12 C           6.1616    1.8150    0.9589 C.3     1  UNL1       -0.0504
     13 C           6.1397    0.5192    0.1522 C.3     1  UNL1       -0.0504
     14 C           0.0115    0.4968    0.7385 C.3     1  UNL1       -0.0013
     15 C           2.8671    1.4887   -1.6863 C.3     1  UNL1        0.0492
     16 C           1.6501   -1.1244   -0.1669 C.ar    1  UNL1        0.0478
     17 C          -0.0619   -0.2494    2.0632 C.3     1  UNL1       -0.0325
     18 C           1.2807   -1.6492   -1.3950 C.ar    1  UNL1       -0.0398
     19 C           1.4975   -3.0049   -1.6150 C.ar    1  UNL1       -0.0586
     20 C           2.4034   -3.1629    0.5784 C.ar    1  UNL1        0.0279
     21 C          -1.4936   -0.8268    3.9010 C.3     1  UNL1        0.0021
     22 C           2.0690   -3.7832   -0.6145 C.ar    1  UNL1       -0.0436
     23 C          -0.5422   -0.2544    4.9179 C.ar    1  UNL1        0.0756
     24 C           0.4957   -0.8771    5.5758 C.ar    1  UNL1        0.1353
     25 C           1.1689    0.0055    6.4690 C.ar    1  UNL1       -0.0124
     26 C           0.6204    1.2689    6.4596 C.ar    1  UNL1       -0.0203
     27 C           1.3872   -2.8877    6.4799 C.3     1  UNL1        0.0788
     28 H          -2.0733   -0.5436    1.9730 H       1  UNL1        0.2017
     29 H          -1.6099    0.8537    2.7730 H       1  UNL1        0.2017
     30 H           2.0834    1.8968    1.4769 H       1  UNL1        0.0302
     31 H           2.6010    0.2383    1.8785 H       1  UNL1        0.0302
     32 H           4.6369    1.6291    2.4657 H       1  UNL1        0.0293
     33 H           4.4653    3.0484    1.5180 H       1  UNL1        0.0293
     34 H           4.4274   -0.5217   -0.6355 H       1  UNL1        0.0293
     35 H           4.6127   -0.7389    1.0527 H       1  UNL1        0.0293
     36 H           1.0594    2.2516   -0.8707 H       1  UNL1        0.0296
     37 H           0.8746    0.8247   -1.9025 H       1  UNL1        0.0296
     38 H           6.8441    1.7313    1.7787 H       1  UNL1        0.0266
     39 H           6.4830    2.6431    0.3623 H       1  UNL1        0.0266
     40 H           6.3834    0.7140   -0.8713 H       1  UNL1        0.0266
     41 H           6.8570   -0.1844    0.5201 H       1  UNL1        0.0266
     42 H          -0.7081    0.0833    0.0632 H       1  UNL1        0.0326
     43 H          -0.1948    1.5314    0.9172 H       1  UNL1        0.0326
     44 H           3.2463    0.5437   -2.0149 H       1  UNL1        0.0560
     45 H           2.8212    2.1815   -2.5004 H       1  UNL1        0.0560
     46 H           0.1675   -1.2821    1.9020 H       1  UNL1        0.0814
     47 H           0.6435    0.1751    2.7466 H       1  UNL1        0.0814
     48 H           0.8580   -1.0527   -2.1233 H       1  UNL1        0.0636
     49 H           1.2353   -3.4318   -2.5172 H       1  UNL1        0.0619
     50 H           2.8281   -3.7395    1.3215 H       1  UNL1        0.0829
     51 H          -1.2598   -1.8601    3.7514 H       1  UNL1        0.0873
     52 H          -2.4894   -0.7070    4.2737 H       1  UNL1        0.0873
     53 H           2.2387   -4.7913   -0.7560 H       1  UNL1        0.0633
     54 H           1.9732   -0.2695    7.0544 H       1  UNL1        0.0659
     55 H           0.9652    2.0518    7.0368 H       1  UNL1        0.0694
     56 H           1.5878   -3.8956    6.1818 H       1  UNL1        0.0660
     57 H           0.7018   -2.8885    7.3015 H       1  UNL1        0.0660
     58 H           2.3001   -2.4154    6.7775 H       1  UNL1        0.0660
@<TRIPOS>UNITY_ATOM_ATTR
5 1
charge 1
@<TRIPOS>BOND
     1     1    23   ar
     2     1    26   ar
     3     2     6    1
     4     2    15    1
     5     3    24    1
     6     3    27    1
     7     4    16   ar
     8     4    20   ar
     9     5    17    1
    10     5    21    1
    11     5    28    1
    12     5    29    1
    13     6     8    1
    14     6     9    1
    15     6    10    1
    16     7     8    1
    17     7    11    1
    18     7    14    1
    19     7    16    1
    20     8    30    1
    21     8    31    1
    22     9    12    1
    23     9    32    1
    24     9    33    1
    25    10    13    1
    26    10    34    1
    27    10    35    1
    28    11    15    1
    29    11    36    1
    30    11    37    1
    31    12    13    1
    32    12    38    1
    33    12    39    1
    34    13    40    1
    35    13    41    1
    36    14    17    1
    37    14    42    1
    38    14    43    1
    39    15    44    1
    40    15    45    1
    41    16    18   ar
    42    17    46    1
    43    17    47    1
    44    18    19   ar
    45    18    48    1
    46    19    22   ar
    47    19    49    1
    48    20    22   ar
    49    20    50    1
    50    21    23    1
    51    21    51    1
    52    21    52    1
    53    22    53    1
    54    23    24   ar
    55    24    25   ar
    56    25    26   ar
    57    25    54    1
    58    26    55    1
    59    27    56    1
    60    27    57    1
    61    27    58    1
@<TRIPOS>MOLECULE
66555030
 58 61 0 0 0
SMALL
GASTEIGER

@<TRIPOS>ATOM
      1 S          -3.0709    3.8165   -0.6731 S.2     1  UNL1       -0.0926
      2 O           3.7389    2.0185   -0.6934 O.3     1  UNL1       -0.3733
      3 O          -2.2451    0.3050   -2.0616 O.3     1  UNL1       -0.4941
      4 N           2.4573   -1.4316   -1.2068 N.ar    1  UNL1       -0.2593
      5 N          -1.6674    2.0414    1.6033 N.4     1  UNL1        0.2308
      6 C           3.8512    1.2252    0.4942 C.3     1  UNL1        0.0704
      7 C           1.4231    0.3747    0.1125 C.3     1  UNL1        0.0224
      8 C           2.4643    0.9676    1.1076 C.3     1  UNL1       -0.0124
      9 C           4.7367    2.0144    1.4725 C.3     1  UNL1       -0.0237
     10 C           4.7153   -0.0215    0.2655 C.3     1  UNL1       -0.0237
     11 C           1.4573    1.2951   -1.1383 C.3     1  UNL1       -0.0181
     12 C           6.1616    1.8150    0.9589 C.3     1  UNL1       -0.0504
     13 C           6.1397    0.5192    0.1522 C.3     1  UNL1       -0.0504
     14 C           0.0115    0.4968    0.7385 C.3     1  UNL1       -0.0013
     15 C           2.8671    1.4887   -1.6863 C.3     1  UNL1        0.0492
     16 C           1.6501   -1.1244   -0.1669 C.ar    1  UNL1        0.0478
     17 C          -0.3430    1.9539    0.9995 C.3     1  UNL1       -0.0325
     18 C           1.0329   -2.0661    0.6407 C.ar    1  UNL1       -0.0398
     19 C           1.2590   -3.4097    0.3631 C.ar    1  UNL1       -0.0586
     20 C           2.6534   -2.7477   -1.4463 C.ar    1  UNL1        0.0279
     21 C          -2.6752    1.4543    0.7318 C.3     1  UNL1        0.0021
     22 C           2.0836   -3.7653   -0.6984 C.ar    1  UNL1       -0.0436
     23 C          -2.7267    2.1404   -0.6074 C.ar    1  UNL1        0.0756
     24 C          -2.5295    1.6036   -1.8608 C.ar    1  UNL1        0.1353
     25 C          -2.6624    2.5816   -2.8884 C.ar    1  UNL1       -0.0124
     26 C          -2.9563    3.8282   -2.3816 C.ar    1  UNL1       -0.0203
     27 C          -1.4415   -0.0319   -3.2011 C.3     1  UNL1        0.0788
     28 H          -1.8964    3.0220    1.7656 H       1  UNL1        0.2017
     29 H          -1.6586    1.5273    2.4842 H       1  UNL1        0.2017
     30 H           2.0834    1.8968    1.4769 H       1  UNL1        0.0302
     31 H           2.6010    0.2383    1.8785 H       1  UNL1        0.0302
     32 H           4.6369    1.6291    2.4657 H       1  UNL1        0.0293
     33 H           4.4653    3.0484    1.5180 H       1  UNL1        0.0293
     34 H           4.4274   -0.5217   -0.6355 H       1  UNL1        0.0293
     35 H           4.6127   -0.7389    1.0527 H       1  UNL1        0.0293
     36 H           1.0594    2.2516   -0.8707 H       1  UNL1        0.0296
     37 H           0.8746    0.8247   -1.9025 H       1  UNL1        0.0296
     38 H           6.8441    1.7313    1.7787 H       1  UNL1        0.0266
     39 H           6.4830    2.6431    0.3623 H       1  UNL1        0.0266
     40 H           6.3834    0.7140   -0.8713 H       1  UNL1        0.0266
     41 H           6.8570   -0.1844    0.5201 H       1  UNL1        0.0266
     42 H          -0.0089   -0.0399    1.6640 H       1  UNL1        0.0326
     43 H          -0.7025    0.0887    0.0539 H       1  UNL1        0.0326
     44 H           3.2463    0.5437   -2.0149 H       1  UNL1        0.0560
     45 H           2.8212    2.1815   -2.5004 H       1  UNL1        0.0560
     46 H           0.3788    2.3813    1.6638 H       1  UNL1        0.0814
     47 H          -0.3422    2.4885    0.0726 H       1  UNL1        0.0814
     48 H           0.4246   -1.7794    1.4235 H       1  UNL1        0.0636
     49 H           0.8166   -4.1400    0.9427 H       1  UNL1        0.0619
     50 H           3.2652   -3.0105   -2.2347 H       1  UNL1        0.0829
     51 H          -3.6324    1.5410    1.2021 H       1  UNL1        0.0873
     52 H          -2.4171    0.4287    0.5696 H       1  UNL1        0.0873
     53 H           2.2654   -4.7563   -0.9222 H       1  UNL1        0.0633
     54 H          -2.5515    2.3797   -3.8944 H       1  UNL1        0.0659
     55 H          -3.0915    4.6700   -2.9630 H       1  UNL1        0.0694
     56 H          -1.2969   -1.0915   -3.2348 H       1  UNL1        0.0660
     57 H          -0.4920    0.4555   -3.1244 H       1  UNL1        0.0660
     58 H          -1.9362    0.2892   -4.0939 H       1  UNL1        0.0660
@<TRIPOS>UNITY_ATOM_ATTR
5 1
charge 1
@<TRIPOS>BOND
     1     1    23   ar
     2     1    26   ar
     3     2     6    1
     4     2    15    1
     5     3    24    1
     6     3    27    1
     7     4    16   ar
     8     4    20   ar
     9     5    17    1
    10     5    21    1
    11     5    28    1
    12     5    29    1
    13     6     8    1
    14     6     9    1
    15     6    10    1
    16     7     8    1
    17     7    11    1
    18     7    14    1
    19     7    16    1
    20     8    30    1
    21     8    31    1
    22     9    12    1
    23     9    32    1
    24     9    33    1
    25    10    13    1
    26    10    34    1
    27    10    35    1
    28    11    15    1
    29    11    36    1
    30    11    37    1
    31    12    13    1
    32    12    38    1
    33    12    39    1
    34    13    40    1
    35    13    41    1
    36    14    17    1
    37    14    42    1
    38    14    43    1
    39    15    44    1
    40    15    45    1
    41    16    18   ar
    42    17    46    1
    43    17    47    1
    44    18    19   ar
    45    18    48    1
    46    19    22   ar
    47    19    49    1
    48    20    22   ar
    49    20    50    1
    50    21    23    1
    51    21    51    1
    52    21    52    1
    53    22    53    1
    54    23    24   ar
    55    24    25   ar
    56    25    26   ar
    57    25    54    1
    58    26    55    1
    59    27    56    1
    60    27    57    1
    61    27    58    1
@<TRIPOS>MOLECULE
66555030
 58 61 0 0 0
SMALL
GASTEIGER

@<TRIPOS>ATOM
      1 S          -3.0709    3.8165   -0.6731 S.2     1  UNL1       -0.0926
      2 O           3.7389    2.0185   -0.6934 O.3     1  UNL1       -0.3733
      3 O          -2.2451    0.3050   -2.0616 O.3     1  UNL1       -0.4941
      4 N           1.5734   -1.9572    0.8951 N.ar    1  UNL1       -0.2593
      5 N          -1.6674    2.0414    1.6033 N.4     1  UNL1        0.2308
      6 C           3.8512    1.2252    0.4942 C.3     1  UNL1        0.0704
      7 C           1.4231    0.3747    0.1125 C.3     1  UNL1        0.0224
      8 C           2.4643    0.9676    1.1076 C.3     1  UNL1       -0.0124
      9 C           4.7367    2.0144    1.4725 C.3     1  UNL1       -0.0237
     10 C           4.7153   -0.0215    0.2655 C.3     1  UNL1       -0.0237
     11 C           1.4573    1.2951   -1.1383 C.3     1  UNL1       -0.0181
     12 C           6.1616    1.8150    0.9589 C.3     1  UNL1       -0.0504
     13 C           6.1397    0.5192    0.1522 C.3     1  UNL1       -0.0504
     14 C           0.0115    0.4968    0.7385 C.3     1  UNL1       -0.0013
     15 C           2.8671    1.4887   -1.6863 C.3     1  UNL1        0.0492
     16 C           1.6501   -1.1244   -0.1669 C.ar    1  UNL1        0.0478
     17 C          -0.3430    1.9539    0.9995 C.3     1  UNL1       -0.0325
     18 C           1.9150   -1.5407   -1.4617 C.ar    1  UNL1       -0.0398
     19 C           2.1137   -2.8994   -1.6805 C.ar    1  UNL1       -0.0586
     20 C           1.7723   -3.2707    0.6437 C.ar    1  UNL1        0.0279
     21 C          -2.6752    1.4543    0.7318 C.3     1  UNL1        0.0021
     22 C           2.0424   -3.7875   -0.6130 C.ar    1  UNL1       -0.0436
     23 C          -2.7267    2.1404   -0.6074 C.ar    1  UNL1        0.0756
     24 C          -2.5295    1.6036   -1.8608 C.ar    1  UNL1        0.1353
     25 C          -2.6624    2.5816   -2.8884 C.ar    1  UNL1       -0.0124
     26 C          -2.9563    3.8282   -2.3816 C.ar    1  UNL1       -0.0203
     27 C          -1.4415   -0.0319   -3.2011 C.3     1  UNL1        0.0788
     28 H          -1.8964    3.0220    1.7656 H       1  UNL1        0.2017
     29 H          -1.6586    1.5273    2.4842 H       1  UNL1        0.2017
     30 H           2.0834    1.8968    1.4769 H       1  UNL1        0.0302
     31 H           2.6010    0.2383    1.8785 H       1  UNL1        0.0302
     32 H           4.6369    1.6291    2.4657 H       1  UNL1        0.0293
     33 H           4.4653    3.0484    1.5180 H       1  UNL1        0.0293
     34 H           4.4274   -0.5217   -0.6355 H       1  UNL1        0.0293
     35 H           4.6127   -0.7389    1.0527 H       1  UNL1        0.0293
     36 H           1.0594    2.2516   -0.8707 H       1  UNL1        0.0296
     37 H           0.8746    0.8247   -1.9025 H       1  UNL1        0.0296
     38 H           6.8441    1.7313    1.7787 H       1  UNL1        0.0266
     39 H           6.4830    2.6431    0.3623 H       1  UNL1        0.0266
     40 H           6.3834    0.7140   -0.8713 H       1  UNL1        0.0266
     41 H           6.8570   -0.1844    0.5201 H       1  UNL1        0.0266
     42 H          -0.0089   -0.0399    1.6640 H       1  UNL1        0.0326
     43 H          -0.7025    0.0887    0.0539 H       1  UNL1        0.0326
     44 H           3.2463    0.5437   -2.0149 H       1  UNL1        0.0560
     45 H           2.8212    2.1815   -2.5004 H       1  UNL1        0.0560
     46 H           0.3788    2.3813    1.6638 H       1  UNL1        0.0814
     47 H          -0.3422    2.4885    0.0726 H       1  UNL1        0.0814
     48 H           1.9632   -0.8638   -2.2391 H       1  UNL1        0.0636
     49 H           2.3131   -3.2473   -2.6314 H       1  UNL1        0.0619
     50 H           1.7197   -3.9288    1.4369 H       1  UNL1        0.0829
     51 H          -3.6324    1.5410    1.2021 H       1  UNL1        0.0873
     52 H          -2.4171    0.4287    0.5696 H       1  UNL1        0.0873
     53 H           2.1863   -4.7999   -0.7525 H       1  UNL1        0.0633
     54 H          -2.5515    2.3797   -3.8944 H       1  UNL1        0.0659
     55 H          -3.0915    4.6700   -2.9630 H       1  UNL1        0.0694
     56 H          -1.2969   -1.0915   -3.2348 H       1  UNL1        0.0660
     57 H          -0.4920    0.4555   -3.1244 H       1  UNL1        0.0660
     58 H          -1.9362    0.2892   -4.0939 H       1  UNL1        0.0660
@<TRIPOS>UNITY_ATOM_ATTR
5 1
charge 1
@<TRIPOS>BOND
     1     1    23   ar
     2     1    26   ar
     3     2     6    1
     4     2    15    1
     5     3    24    1
     6     3    27    1
     7     4    16   ar
     8     4    20   ar
     9     5    17    1
    10     5    21    1
    11     5    28    1
    12     5    29    1
    13     6     8    1
    14     6     9    1
    15     6    10    1
    16     7     8    1
    17     7    11    1
    18     7    14    1
    19     7    16    1
    20     8    30    1
    21     8    31    1
    22     9    12    1
    23     9    32    1
    24     9    33    1
    25    10    13    1
    26    10    34    1
    27    10    35    1
    28    11    15    1
    29    11    36    1
    30    11    37    1
    31    12    13    1
    32    12    38    1
    33    12    39    1
    34    13    40    1
    35    13    41    1
    36    14    17    1
    37    14    42    1
    38    14    43    1
    39    15    44    1
    40    15    45    1
    41    16    18   ar
    42    17    46    1
    43    17    47    1
    44    18    19   ar
    45    18    48    1
    46    19    22   ar
    47    19    49    1
    48    20    22   ar
    49    20    50    1
    50    21    23    1
    51    21    51    1
    52    21    52    1
    53    22    53    1
    54    23    24   ar
    55    24    25   ar
    56    25    26   ar
    57    25    54    1
    58    26    55    1
    59    27    56    1
    60    27    57    1
    61    27    58    1
@<TRIPOS>MOLECULE
66555030
 58 61 0 0 0
SMALL
GASTEIGER

@<TRIPOS>ATOM
      1 S          -2.1128    1.2537    0.0887 S.2     1  UNL1       -0.0926
      2 O           3.7389    2.0185   -0.6934 O.3     1  UNL1       -0.3733
      3 O          -1.1614    4.2183    2.3792 O.3     1  UNL1       -0.4941
      4 N           1.2845   -1.5755   -1.3876 N.ar    1  UNL1       -0.2593
      5 N          -1.4031   -0.1338    2.6236 N.4     1  UNL1        0.2308
      6 C           3.8512    1.2252    0.4942 C.3     1  UNL1        0.0704
      7 C           1.4231    0.3747    0.1125 C.3     1  UNL1        0.0224
      8 C           2.4643    0.9676    1.1076 C.3     1  UNL1       -0.0124
      9 C           4.7367    2.0144    1.4725 C.3     1  UNL1       -0.0237
     10 C           4.7153   -0.0215    0.2655 C.3     1  UNL1       -0.0237
     11 C           1.4573    1.2951   -1.1383 C.3     1  UNL1       -0.0181
     12 C           6.1616    1.8150    0.9589 C.3     1  UNL1       -0.0504
     13 C           6.1397    0.5192    0.1522 C.3     1  UNL1       -0.0504
     14 C           0.0115    0.4968    0.7385 C.3     1  UNL1       -0.0013
     15 C           2.8671    1.4887   -1.6863 C.3     1  UNL1        0.0492
     16 C           1.6501   -1.1244   -0.1669 C.ar    1  UNL1        0.0478
     17 C          -0.0619   -0.2494    2.0632 C.3     1  UNL1       -0.0325
     18 C           2.2057   -1.9221    0.8205 C.ar    1  UNL1       -0.0398
     19 C           2.3986   -3.2695    0.5366 C.ar    1  UNL1       -0.0586
     20 C           1.4869   -2.8907   -1.6271 C.ar    1  UNL1        0.0279
     21 C          -1.7559    1.2618    2.8424 C.3     1  UNL1        0.0021
     22 C           2.0352   -3.7708   -0.7083 C.ar    1  UNL1       -0.0436
     23 C          -1.7467    2.0501    1.5597 C.ar    1  UNL1        0.0756
     24 C          -1.4752    3.3873    1.3699 C.ar    1  UNL1        0.1353
     25 C          -1.5694    3.7628   -0.0013 C.ar    1  UNL1       -0.0124
     26 C          -1.9090    2.6986   -0.8071 C.ar    1  UNL1       -0.0203
     27 C          -0.4914    3.6594    3.5177 C.3     1  UNL1        0.0788
     28 H          -1.4370   -0.6305    3.5138 H       1  UNL1        0.2017
     29 H          -2.0678   -0.5387    1.9644 H       1  UNL1        0.2017
     30 H           2.0834    1.8968    1.4769 H       1  UNL1        0.0302
     31 H           2.6010    0.2383    1.8785 H       1  UNL1        0.0302
     32 H           4.6369    1.6291    2.4657 H       1  UNL1        0.0293
     33 H           4.4653    3.0484    1.5180 H       1  UNL1        0.0293
     34 H           4.4274   -0.5217   -0.6355 H       1  UNL1        0.0293
     35 H           4.6127   -0.7389    1.0527 H       1  UNL1        0.0293
     36 H           1.0594    2.2516   -0.8707 H       1  UNL1        0.0296
     37 H           0.8746    0.8247   -1.9025 H       1  UNL1        0.0296
     38 H           6.8441    1.7313    1.7787 H       1  UNL1        0.0266
     39 H           6.4830    2.6431    0.3623 H       1  UNL1        0.0266
     40 H           6.3834    0.7140   -0.8713 H       1  UNL1        0.0266
     41 H           6.8570   -0.1844    0.5201 H       1  UNL1        0.0266
     42 H          -0.7081    0.0833    0.0632 H       1  UNL1        0.0326
     43 H          -0.1948    1.5314    0.9172 H       1  UNL1        0.0326
     44 H           3.2463    0.5437   -2.0149 H       1  UNL1        0.0560
     45 H           2.8212    2.1815   -2.5004 H       1  UNL1        0.0560
     46 H           0.1675   -1.2821    1.9020 H       1  UNL1        0.0814
     47 H           0.6435    0.1751    2.7466 H       1  UNL1        0.0814
     48 H           2.4681   -1.5285    1.7377 H       1  UNL1        0.0636
     49 H           2.8100   -3.8949    1.2470 H       1  UNL1        0.0619
     50 H           1.2162   -3.2617   -2.5513 H       1  UNL1        0.0829
     51 H          -1.0500    1.6950    3.5199 H       1  UNL1        0.0873
     52 H          -2.7466    1.2945    3.2452 H       1  UNL1        0.0873
     53 H           2.1696   -4.7673   -0.9406 H       1  UNL1        0.0633
     54 H          -1.4027    4.7198   -0.3498 H       1  UNL1        0.0659
     55 H          -2.0267    2.7644   -1.8303 H       1  UNL1        0.0694
     56 H          -0.3059    4.4302    4.2364 H       1  UNL1        0.0660
     57 H           0.4380    3.2286    3.2086 H       1  UNL1        0.0660
     58 H          -1.1066    2.9023    3.9575 H       1  UNL1        0.0660
@<TRIPOS>UNITY_ATOM_ATTR
5 1
charge 1
@<TRIPOS>BOND
     1     1    23   ar
     2     1    26   ar
     3     2     6    1
     4     2    15    1
     5     3    24    1
     6     3    27    1
     7     4    16   ar
     8     4    20   ar
     9     5    17    1
    10     5    21    1
    11     5    28    1
    12     5    29    1
    13     6     8    1
    14     6     9    1
    15     6    10    1
    16     7     8    1
    17     7    11    1
    18     7    14    1
    19     7    16    1
    20     8    30    1
    21     8    31    1
    22     9    12    1
    23     9    32    1
    24     9    33    1
    25    10    13    1
    26    10    34    1
    27    10    35    1
    28    11    15    1
    29    11    36    1
    30    11    37    1
    31    12    13    1
    32    12    38    1
    33    12    39    1
    34    13    40    1
    35    13    41    1
    36    14    17    1
    37    14    42    1
    38    14    43    1
    39    15    44    1
    40    15    45    1
    41    16    18   ar
    42    17    46    1
    43    17    47    1
    44    18    19   ar
    45    18    48    1
    46    19    22   ar
    47    19    49    1
    48    20    22   ar
    49    20    50    1
    50    21    23    1
    51    21    51    1
    52    21    52    1
    53    22    53    1
    54    23    24   ar
    55    24    25   ar
    56    25    26   ar
    57    25    54    1
    58    26    55    1
    59    27    56    1
    60    27    57    1
    61    27    58    1
@<TRIPOS>MOLECULE
66555030
 58 61 0 0 0
SMALL
GASTEIGER

@<TRIPOS>ATOM
      1 S          -1.3252    5.7520    3.1916 S.2     1  UNL1       -0.0926
      2 O           3.7389    2.0185   -0.6934 O.3     1  UNL1       -0.3733
      3 O           0.4953    2.3424    3.1593 O.3     1  UNL1       -0.4941
      4 N           2.2078   -1.8488    0.8289 N.ar    1  UNL1       -0.2593
      5 N          -1.6674    2.0414    1.6033 N.4     1  UNL1        0.2308
      6 C           3.8512    1.2252    0.4942 C.3     1  UNL1        0.0704
      7 C           1.4231    0.3747    0.1125 C.3     1  UNL1        0.0224
      8 C           2.4643    0.9676    1.1076 C.3     1  UNL1       -0.0124
      9 C           4.7367    2.0144    1.4725 C.3     1  UNL1       -0.0237
     10 C           4.7153   -0.0215    0.2655 C.3     1  UNL1       -0.0237
     11 C           1.4573    1.2951   -1.1383 C.3     1  UNL1       -0.0181
     12 C           6.1616    1.8150    0.9589 C.3     1  UNL1       -0.0504
     13 C           6.1397    0.5192    0.1522 C.3     1  UNL1       -0.0504
     14 C           0.0115    0.4968    0.7385 C.3     1  UNL1       -0.0013
     15 C           2.8671    1.4887   -1.6863 C.3     1  UNL1        0.0492
     16 C           1.6501   -1.1244   -0.1669 C.ar    1  UNL1        0.0478
     17 C          -0.3430    1.9539    0.9995 C.3     1  UNL1       -0.0325
     18 C           1.2807   -1.6492   -1.3950 C.ar    1  UNL1       -0.0398
     19 C           1.4975   -3.0049   -1.6150 C.ar    1  UNL1       -0.0586
     20 C           2.4034   -3.1629    0.5784 C.ar    1  UNL1        0.0279
     21 C          -2.0362    3.4286    1.8475 C.3     1  UNL1        0.0021
     22 C           2.0690   -3.7832   -0.6145 C.ar    1  UNL1       -0.0436
     23 C          -1.0590    4.1154    2.7643 C.ar    1  UNL1        0.0756
     24 C           0.0809    3.6075    3.3478 C.ar    1  UNL1        0.1353
     25 C           0.7442    4.5749    4.1567 C.ar    1  UNL1       -0.0124
     26 C           0.0863    5.7851    4.1604 C.ar    1  UNL1       -0.0203
     27 C           1.9065    2.0901    3.2083 C.3     1  UNL1        0.0788
     28 H          -1.6646    1.5356    2.4891 H       1  UNL1        0.2017
     29 H          -2.3460    1.6317    0.9615 H       1  UNL1        0.2017
     30 H           2.0834    1.8968    1.4769 H       1  UNL1        0.0302
     31 H           2.6010    0.2383    1.8785 H       1  UNL1        0.0302
     32 H           4.6369    1.6291    2.4657 H       1  UNL1        0.0293
     33 H           4.4653    3.0484    1.5180 H       1  UNL1        0.0293
     34 H           4.4274   -0.5217   -0.6355 H       1  UNL1        0.0293
     35 H           4.6127   -0.7389    1.0527 H       1  UNL1        0.0293
     36 H           1.0594    2.2516   -0.8707 H       1  UNL1        0.0296
     37 H           0.8746    0.8247   -1.9025 H       1  UNL1        0.0296
     38 H           6.8441    1.7313    1.7787 H       1  UNL1        0.0266
     39 H           6.4830    2.6431    0.3623 H       1  UNL1        0.0266
     40 H           6.3834    0.7140   -0.8713 H       1  UNL1        0.0266
     41 H           6.8570   -0.1844    0.5201 H       1  UNL1        0.0266
     42 H          -0.0089   -0.0399    1.6640 H       1  UNL1        0.0326
     43 H          -0.7025    0.0887    0.0539 H       1  UNL1        0.0326
     44 H           3.2463    0.5437   -2.0149 H       1  UNL1        0.0560
     45 H           2.8212    2.1815   -2.5004 H       1  UNL1        0.0560
     46 H           0.3788    2.3813    1.6638 H       1  UNL1        0.0814
     47 H          -0.3422    2.4885    0.0726 H       1  UNL1        0.0814
     48 H           0.8580   -1.0527   -2.1233 H       1  UNL1        0.0636
     49 H           1.2353   -3.4318   -2.5172 H       1  UNL1        0.0619
     50 H           2.8281   -3.7395    1.3215 H       1  UNL1        0.0829
     51 H          -3.0077    3.4548    2.2951 H       1  UNL1        0.0873
     52 H          -2.0299    3.9438    0.9098 H       1  UNL1        0.0873
     53 H           2.2387   -4.7913   -0.7560 H       1  UNL1        0.0633
     54 H           1.6152    4.3906    4.6786 H       1  UNL1        0.0659
     55 H           0.4064    6.6140    4.6853 H       1  UNL1        0.0694
     56 H           2.0886    1.0487    3.0428 H       1  UNL1        0.0660
     57 H           2.2859    2.3703    4.1688 H       1  UNL1        0.0660
     58 H           2.3978    2.6631    2.4498 H       1  UNL1        0.0660
@<TRIPOS>UNITY_ATOM_ATTR
5 1
charge 1
@<TRIPOS>BOND
     1     1    23   ar
     2     1    26   ar
     3     2     6    1
     4     2    15    1
     5     3    24    1
     6     3    27    1
     7     4    16   ar
     8     4    20   ar
     9     5    17    1
    10     5    21    1
    11     5    28    1
    12     5    29    1
    13     6     8    1
    14     6     9    1
    15     6    10    1
    16     7     8    1
    17     7    11    1
    18     7    14    1
    19     7    16    1
    20     8    30    1
    21     8    31    1
    22     9    12    1
    23     9    32    1
    24     9    33    1
    25    10    13    1
    26    10    34    1
    27    10    35    1
    28    11    15    1
    29    11    36    1
    30    11    37    1
    31    12    13    1
    32    12    38    1
    33    12    39    1
    34    13    40    1
    35    13    41    1
    36    14    17    1
    37    14    42    1
    38    14    43    1
    39    15    44    1
    40    15    45    1
    41    16    18   ar
    42    17    46    1
    43    17    47    1
    44    18    19   ar
    45    18    48    1
    46    19    22   ar
    47    19    49    1
    48    20    22   ar
    49    20    50    1
    50    21    23    1
    51    21    51    1
    52    21    52    1
    53    22    53    1
    54    23    24   ar
    55    24    25   ar
    56    25    26   ar
    57    25    54    1
    58    26    55    1
    59    27    56    1
    60    27    57    1
    61    27    58    1
@<TRIPOS>MOLECULE
66555030
 58 61 0 0 0
SMALL
GASTEIGER

@<TRIPOS>ATOM
      1 S          -5.2077    0.3378    0.9561 S.2     1  UNL1       -0.0926
      2 O           3.7389    2.0185   -0.6934 O.3     1  UNL1       -0.3733
      3 O          -3.8478    3.5592    2.6035 O.3     1  UNL1       -0.4941
      4 N           2.6903   -1.7085    0.4687 N.ar    1  UNL1       -0.2593
      5 N          -1.6674    2.0414    1.6033 N.4     1  UNL1        0.2308
      6 C           3.8512    1.2252    0.4942 C.3     1  UNL1        0.0704
      7 C           1.4231    0.3747    0.1125 C.3     1  UNL1        0.0224
      8 C           2.4643    0.9676    1.1076 C.3     1  UNL1       -0.0124
      9 C           4.7367    2.0144    1.4725 C.3     1  UNL1       -0.0237
     10 C           4.7153   -0.0215    0.2655 C.3     1  UNL1       -0.0237
     11 C           1.4573    1.2951   -1.1383 C.3     1  UNL1       -0.0181
     12 C           6.1616    1.8150    0.9589 C.3     1  UNL1       -0.0504
     13 C           6.1397    0.5192    0.1522 C.3     1  UNL1       -0.0504
     14 C           0.0115    0.4968    0.7385 C.3     1  UNL1       -0.0013
     15 C           2.8671    1.4887   -1.6863 C.3     1  UNL1        0.0492
     16 C           1.6501   -1.1244   -0.1669 C.ar    1  UNL1        0.0478
     17 C          -0.3430    1.9539    0.9995 C.3     1  UNL1       -0.0325
     18 C           0.7985   -1.7894   -1.0344 C.ar    1  UNL1       -0.0398
     19 C           1.0295   -3.1412   -1.2641 C.ar    1  UNL1       -0.0586
     20 C           2.8838   -3.0235    0.2205 C.ar    1  UNL1        0.0279
     21 C          -2.6752    1.4543    0.7318 C.3     1  UNL1        0.0021
     22 C           2.0898   -3.7774   -0.6284 C.ar    1  UNL1       -0.0436
     23 C          -4.0548    1.5483    1.3273 C.ar    1  UNL1        0.0756
     24 C          -4.5671    2.5084    2.1721 C.ar    1  UNL1        0.1353
     25 C          -5.9238    2.2464    2.5194 C.ar    1  UNL1       -0.0124
     26 C          -6.3969    1.0965    1.9268 C.ar    1  UNL1       -0.0203
     27 C          -4.1616    4.0947    3.8967 C.3     1  UNL1        0.0788
     28 H          -1.8964    3.0220    1.7656 H       1  UNL1        0.2017
     29 H          -1.6586    1.5273    2.4842 H       1  UNL1        0.2017
     30 H           2.0834    1.8968    1.4769 H       1  UNL1        0.0302
     31 H           2.6010    0.2383    1.8785 H       1  UNL1        0.0302
     32 H           4.6369    1.6291    2.4657 H       1  UNL1        0.0293
     33 H           4.4653    3.0484    1.5180 H       1  UNL1        0.0293
     34 H           4.4274   -0.5217   -0.6355 H       1  UNL1        0.0293
     35 H           4.6127   -0.7389    1.0527 H       1  UNL1        0.0293
     36 H           1.0594    2.2516   -0.8707 H       1  UNL1        0.0296
     37 H           0.8746    0.8247   -1.9025 H       1  UNL1        0.0296
     38 H           6.8441    1.7313    1.7787 H       1  UNL1        0.0266
     39 H           6.4830    2.6431    0.3623 H       1  UNL1        0.0266
     40 H           6.3834    0.7140   -0.8713 H       1  UNL1        0.0266
     41 H           6.8570   -0.1844    0.5201 H       1  UNL1        0.0266
     42 H          -0.0089   -0.0399    1.6640 H       1  UNL1        0.0326
     43 H          -0.7025    0.0887    0.0539 H       1  UNL1        0.0326
     44 H           3.2463    0.5437   -2.0149 H       1  UNL1        0.0560
     45 H           2.8212    2.1815   -2.5004 H       1  UNL1        0.0560
     46 H           0.3788    2.3813    1.6638 H       1  UNL1        0.0814
     47 H          -0.3422    2.4885    0.0726 H       1  UNL1        0.0814
     48 H           0.0175   -1.2970   -1.4954 H       1  UNL1        0.0636
     49 H           0.4163   -3.6701   -1.9039 H       1  UNL1        0.0619
     50 H           3.6714   -3.4946    0.6925 H       1  UNL1        0.0829
     51 H          -2.4366    0.4235    0.5721 H       1  UNL1        0.0873
     52 H          -2.6739    1.9974   -0.1901 H       1  UNL1        0.0873
     53 H           2.2794   -4.7799   -0.7841 H       1  UNL1        0.0633
     54 H          -6.4861    2.8475    3.1419 H       1  UNL1        0.0659
     55 H          -7.3551    0.7348    2.0530 H       1  UNL1        0.0694
     56 H          -3.5148    4.9207    4.1073 H       1  UNL1        0.0660
     57 H          -4.0253    3.3365    4.6393 H       1  UNL1        0.0660
     58 H          -5.1789    4.4263    3.9081 H       1  UNL1        0.0660
@<TRIPOS>UNITY_ATOM_ATTR
5 1
charge 1
@<TRIPOS>BOND
     1     1    23   ar
     2     1    26   ar
     3     2     6    1
     4     2    15    1
     5     3    24    1
     6     3    27    1
     7     4    16   ar
     8     4    20   ar
     9     5    17    1
    10     5    21    1
    11     5    28    1
    12     5    29    1
    13     6     8    1
    14     6     9    1
    15     6    10    1
    16     7     8    1
    17     7    11    1
    18     7    14    1
    19     7    16    1
    20     8    30    1
    21     8    31    1
    22     9    12    1
    23     9    32    1
    24     9    33    1
    25    10    13    1
    26    10    34    1
    27    10    35    1
    28    11    15    1
    29    11    36    1
    30    11    37    1
    31    12    13    1
    32    12    38    1
    33    12    39    1
    34    13    40    1
    35    13    41    1
    36    14    17    1
    37    14    42    1
    38    14    43    1
    39    15    44    1
    40    15    45    1
    41    16    18   ar
    42    17    46    1
    43    17    47    1
    44    18    19   ar
    45    18    48    1
    46    19    22   ar
    47    19    49    1
    48    20    22   ar
    49    20    50    1
    50    21    23    1
    51    21    51    1
    52    21    52    1
    53    22    53    1
    54    23    24   ar
    55    24    25   ar
    56    25    26   ar
    57    25    54    1
    58    26    55    1
    59    27    56    1
    60    27    57    1
    61    27    58    1
@<TRIPOS>MOLECULE
66555030
 58 61 0 0 0
SMALL
GASTEIGER

@<TRIPOS>ATOM
      1 S          -2.4784    5.8933    0.6475 S.2     1  UNL1       -0.0926
      2 O           3.7389    2.0185   -0.6934 O.3     1  UNL1       -0.3733
      3 O          -1.5086    2.5463   -1.0251 O.3     1  UNL1       -0.4941
      4 N           1.5734   -1.9572    0.8951 N.ar    1  UNL1       -0.2593
      5 N          -1.6674    2.0414    1.6033 N.4     1  UNL1        0.2308
      6 C           3.8512    1.2252    0.4942 C.3     1  UNL1        0.0704
      7 C           1.4231    0.3747    0.1125 C.3     1  UNL1        0.0224
      8 C           2.4643    0.9676    1.1076 C.3     1  UNL1       -0.0124
      9 C           4.7367    2.0144    1.4725 C.3     1  UNL1       -0.0237
     10 C           4.7153   -0.0215    0.2655 C.3     1  UNL1       -0.0237
     11 C           1.4573    1.2951   -1.1383 C.3     1  UNL1       -0.0181
     12 C           6.1616    1.8150    0.9589 C.3     1  UNL1       -0.0504
     13 C           6.1397    0.5192    0.1522 C.3     1  UNL1       -0.0504
     14 C           0.0115    0.4968    0.7385 C.3     1  UNL1       -0.0013
     15 C           2.8671    1.4887   -1.6863 C.3     1  UNL1        0.0492
     16 C           1.6501   -1.1244   -0.1669 C.ar    1  UNL1        0.0478
     17 C          -0.3430    1.9539    0.9995 C.3     1  UNL1       -0.0325
     18 C           1.9150   -1.5407   -1.4617 C.ar    1  UNL1       -0.0398
     19 C           2.1137   -2.8994   -1.6805 C.ar    1  UNL1       -0.0586
     20 C           1.7723   -3.2707    0.6437 C.ar    1  UNL1        0.0279
     21 C          -2.0362    3.4286    1.8475 C.3     1  UNL1        0.0021
     22 C           2.0424   -3.7875   -0.6130 C.ar    1  UNL1       -0.0436
     23 C          -2.0811    4.2294    0.5733 C.ar    1  UNL1        0.0756
     24 C          -1.8395    3.8126   -0.7173 C.ar    1  UNL1        0.1353
     25 C          -1.9820    4.8737   -1.6575 C.ar    1  UNL1       -0.0124
     26 C          -2.3274    6.0606   -1.0499 C.ar    1  UNL1       -0.0203
     27 C          -0.6700    2.3371   -2.1699 C.3     1  UNL1        0.0788
     28 H          -1.6646    1.5356    2.4891 H       1  UNL1        0.2017
     29 H          -2.3460    1.6317    0.9615 H       1  UNL1        0.2017
     30 H           2.0834    1.8968    1.4769 H       1  UNL1        0.0302
     31 H           2.6010    0.2383    1.8785 H       1  UNL1        0.0302
     32 H           4.6369    1.6291    2.4657 H       1  UNL1        0.0293
     33 H           4.4653    3.0484    1.5180 H       1  UNL1        0.0293
     34 H           4.4274   -0.5217   -0.6355 H       1  UNL1        0.0293
     35 H           4.6127   -0.7389    1.0527 H       1  UNL1        0.0293
     36 H           1.0594    2.2516   -0.8707 H       1  UNL1        0.0296
     37 H           0.8746    0.8247   -1.9025 H       1  UNL1        0.0296
     38 H           6.8441    1.7313    1.7787 H       1  UNL1        0.0266
     39 H           6.4830    2.6431    0.3623 H       1  UNL1        0.0266
     40 H           6.3834    0.7140   -0.8713 H       1  UNL1        0.0266
     41 H           6.8570   -0.1844    0.5201 H       1  UNL1        0.0266
     42 H          -0.0089   -0.0399    1.6640 H       1  UNL1        0.0326
     43 H          -0.7025    0.0887    0.0539 H       1  UNL1        0.0326
     44 H           3.2463    0.5437   -2.0149 H       1  UNL1        0.0560
     45 H           2.8212    2.1815   -2.5004 H       1  UNL1        0.0560
     46 H           0.3788    2.3813    1.6638 H       1  UNL1        0.0814
     47 H          -0.3422    2.4885    0.0726 H       1  UNL1        0.0814
     48 H           1.9632   -0.8638   -2.2391 H       1  UNL1        0.0636
     49 H           2.3131   -3.2473   -2.6314 H       1  UNL1        0.0619
     50 H           1.7197   -3.9288    1.4369 H       1  UNL1        0.0829
     51 H          -1.3164    3.8671    2.5067 H       1  UNL1        0.0873
     52 H          -3.0140    3.4406    2.2818 H       1  UNL1        0.0873
     53 H           2.1863   -4.7999   -0.7525 H       1  UNL1        0.0633
     54 H          -1.8429    4.7657   -2.6744 H       1  UNL1        0.0659
     55 H          -2.4775    6.9463   -1.5578 H       1  UNL1        0.0694
     56 H          -0.4901    1.2895   -2.2936 H       1  UNL1        0.0660
     57 H           0.2612    2.8445   -2.0274 H       1  UNL1        0.0660
     58 H          -1.1555    2.7211   -3.0427 H       1  UNL1        0.0660
@<TRIPOS>UNITY_ATOM_ATTR
5 1
charge 1
@<TRIPOS>BOND
     1     1    23   ar
     2     1    26   ar
     3     2     6    1
     4     2    15    1
     5     3    24    1
     6     3    27    1
     7     4    16   ar
     8     4    20   ar
     9     5    17    1
    10     5    21    1
    11     5    28    1
    12     5    29    1
    13     6     8    1
    14     6     9    1
    15     6    10    1
    16     7     8    1
    17     7    11    1
    18     7    14    1
    19     7    16    1
    20     8    30    1
    21     8    31    1
    22     9    12    1
    23     9    32    1
    24     9    33    1
    25    10    13    1
    26    10    34    1
    27    10    35    1
    28    11    15    1
    29    11    36    1
    30    11    37    1
    31    12    13    1
    32    12    38    1
    33    12    39    1
    34    13    40    1
    35    13    41    1
    36    14    17    1
    37    14    42    1
    38    14    43    1
    39    15    44    1
    40    15    45    1
    41    16    18   ar
    42    17    46    1
    43    17    47    1
    44    18    19   ar
    45    18    48    1
    46    19    22   ar
    47    19    49    1
    48    20    22   ar
    49    20    50    1
    50    21    23    1
    51    21    51    1
    52    21    52    1
    53    22    53    1
    54    23    24   ar
    55    24    25   ar
    56    25    26   ar
    57    25    54    1
    58    26    55    1
    59    27    56    1
    60    27    57    1
    61    27    58    1
@<TRIPOS>MOLECULE
66555030
 58 61 0 0 0
SMALL
GASTEIGER

@<TRIPOS>ATOM
      1 S           2.1248   -4.3675    3.0939 S.2     1  UNL1       -0.0926
      2 O           3.7389    2.0185   -0.6934 O.3     1  UNL1       -0.3733
      3 O          -1.6653   -4.7424    2.4347 O.3     1  UNL1       -0.4941
      4 N           2.6903   -1.7085    0.4687 N.ar    1  UNL1       -0.2593
      5 N           0.2477   -1.6591    1.8559 N.4     1  UNL1        0.2308
      6 C           3.8512    1.2252    0.4942 C.3     1  UNL1        0.0704
      7 C           1.4231    0.3747    0.1125 C.3     1  UNL1        0.0224
      8 C           2.4643    0.9676    1.1076 C.3     1  UNL1       -0.0124
      9 C           4.7367    2.0144    1.4725 C.3     1  UNL1       -0.0237
     10 C           4.7153   -0.0215    0.2655 C.3     1  UNL1       -0.0237
     11 C           1.4573    1.2951   -1.1383 C.3     1  UNL1       -0.0181
     12 C           6.1616    1.8150    0.9589 C.3     1  UNL1       -0.0504
     13 C           6.1397    0.5192    0.1522 C.3     1  UNL1       -0.0504
     14 C           0.0115    0.4968    0.7385 C.3     1  UNL1       -0.0013
     15 C           2.8671    1.4887   -1.6863 C.3     1  UNL1        0.0492
     16 C           1.6501   -1.1244   -0.1669 C.ar    1  UNL1        0.0478
     17 C          -0.0619   -0.2494    2.0632 C.3     1  UNL1       -0.0325
     18 C           0.7985   -1.7894   -1.0344 C.ar    1  UNL1       -0.0398
     19 C           1.0295   -3.1412   -1.2641 C.ar    1  UNL1       -0.0586
     20 C           2.8838   -3.0235    0.2205 C.ar    1  UNL1        0.0279
     21 C           0.1675   -2.3980    3.1079 C.3     1  UNL1        0.0021
     22 C           2.0898   -3.7774   -0.6284 C.ar    1  UNL1       -0.0436
     23 C           0.5003   -3.8545    2.9216 C.ar    1  UNL1        0.0756
     24 C          -0.3427   -4.9007    2.6170 C.ar    1  UNL1        0.1353
     25 C           0.3546   -6.1398    2.5244 C.ar    1  UNL1       -0.0124
     26 C           1.7035   -5.9935    2.7613 C.ar    1  UNL1       -0.0203
     27 C          -2.1208   -3.4805    1.9270 C.3     1  UNL1        0.0788
     28 H           1.1919   -1.7417    1.4791 H       1  UNL1        0.2017
     29 H          -0.4317   -2.0495    1.2028 H       1  UNL1        0.2017
     30 H           2.0834    1.8968    1.4769 H       1  UNL1        0.0302
     31 H           2.6010    0.2383    1.8785 H       1  UNL1        0.0302
     32 H           4.6369    1.6291    2.4657 H       1  UNL1        0.0293
     33 H           4.4653    3.0484    1.5180 H       1  UNL1        0.0293
     34 H           4.4274   -0.5217   -0.6355 H       1  UNL1        0.0293
     35 H           4.6127   -0.7389    1.0527 H       1  UNL1        0.0293
     36 H           1.0594    2.2516   -0.8707 H       1  UNL1        0.0296
     37 H           0.8746    0.8247   -1.9025 H       1  UNL1        0.0296
     38 H           6.8441    1.7313    1.7787 H       1  UNL1        0.0266
     39 H           6.4830    2.6431    0.3623 H       1  UNL1        0.0266
     40 H           6.3834    0.7140   -0.8713 H       1  UNL1        0.0266
     41 H           6.8570   -0.1844    0.5201 H       1  UNL1        0.0266
     42 H          -0.7081    0.0833    0.0632 H       1  UNL1        0.0326
     43 H          -0.1948    1.5314    0.9172 H       1  UNL1        0.0326
     44 H           3.2463    0.5437   -2.0149 H       1  UNL1        0.0560
     45 H           2.8212    2.1815   -2.5004 H       1  UNL1        0.0560
     46 H           0.6443    0.1721    2.7476 H       1  UNL1        0.0814
     47 H          -1.0503   -0.1608    2.4635 H       1  UNL1        0.0814
     48 H           0.0175   -1.2970   -1.4954 H       1  UNL1        0.0636
     49 H           0.4163   -3.6701   -1.9039 H       1  UNL1        0.0619
     50 H           3.6714   -3.4946    0.6925 H       1  UNL1        0.0829
     51 H          -0.8269   -2.3168    3.4946 H       1  UNL1        0.0873
     52 H           0.8804   -1.9788    3.7869 H       1  UNL1        0.0873
     53 H           2.2794   -4.7799   -0.7841 H       1  UNL1        0.0633
     54 H          -0.0980   -7.0411    2.3055 H       1  UNL1        0.0659
     55 H           2.3805   -6.7721    2.7408 H       1  UNL1        0.0694
     56 H          -3.1866   -3.4975    1.8333 H       1  UNL1        0.0660
     57 H          -1.6813   -3.3023    0.9679 H       1  UNL1        0.0660
     58 H          -1.8344   -2.7005    2.6011 H       1  UNL1        0.0660
@<TRIPOS>UNITY_ATOM_ATTR
5 1
charge 1
@<TRIPOS>BOND
     1     1    23   ar
     2     1    26   ar
     3     2     6    1
     4     2    15    1
     5     3    24    1
     6     3    27    1
     7     4    16   ar
     8     4    20   ar
     9     5    17    1
    10     5    21    1
    11     5    28    1
    12     5    29    1
    13     6     8    1
    14     6     9    1
    15     6    10    1
    16     7     8    1
    17     7    11    1
    18     7    14    1
    19     7    16    1
    20     8    30    1
    21     8    31    1
    22     9    12    1
    23     9    32    1
    24     9    33    1
    25    10    13    1
    26    10    34    1
    27    10    35    1
    28    11    15    1
    29    11    36    1
    30    11    37    1
    31    12    13    1
    32    12    38    1
    33    12    39    1
    34    13    40    1
    35    13    41    1
    36    14    17    1
    37    14    42    1
    38    14    43    1
    39    15    44    1
    40    15    45    1
    41    16    18   ar
    42    17    46    1
    43    17    47    1
    44    18    19   ar
    45    18    48    1
    46    19    22   ar
    47    19    49    1
    48    20    22   ar
    49    20    50    1
    50    21    23    1
    51    21    51    1
    52    21    52    1
    53    22    53    1
    54    23    24   ar
    55    24    25   ar
    56    25    26   ar
    57    25    54    1
    58    26    55    1
    59    27    56    1
    60    27    57    1
    61    27    58    1
@<TRIPOS>MOLECULE
66555030
 58 61 0 0 0
SMALL
GASTEIGER

@<TRIPOS>ATOM
      1 S           0.2888    4.9275    2.0890 S.2     1  UNL1       -0.0926
      2 O           3.7389    2.0185   -0.6934 O.3     1  UNL1       -0.3733
      3 O          -2.0406    3.6386    4.8914 O.3     1  UNL1       -0.4941
      4 N           1.2845   -1.5755   -1.3876 N.ar    1  UNL1       -0.2593
      5 N          -1.6674    2.0414    1.6033 N.4     1  UNL1        0.2308
      6 C           3.8512    1.2252    0.4942 C.3     1  UNL1        0.0704
      7 C           1.4231    0.3747    0.1125 C.3     1  UNL1        0.0224
      8 C           2.4643    0.9676    1.1076 C.3     1  UNL1       -0.0124
      9 C           4.7367    2.0144    1.4725 C.3     1  UNL1       -0.0237
     10 C           4.7153   -0.0215    0.2655 C.3     1  UNL1       -0.0237
     11 C           1.4573    1.2951   -1.1383 C.3     1  UNL1       -0.0181
     12 C           6.1616    1.8150    0.9589 C.3     1  UNL1       -0.0504
     13 C           6.1397    0.5192    0.1522 C.3     1  UNL1       -0.0504
     14 C           0.0115    0.4968    0.7385 C.3     1  UNL1       -0.0013
     15 C           2.8671    1.4887   -1.6863 C.3     1  UNL1        0.0492
     16 C           1.6501   -1.1244   -0.1669 C.ar    1  UNL1        0.0478
     17 C          -0.3430    1.9539    0.9995 C.3     1  UNL1       -0.0325
     18 C           2.2057   -1.9221    0.8205 C.ar    1  UNL1       -0.0398
     19 C           2.3986   -3.2695    0.5366 C.ar    1  UNL1       -0.0586
     20 C           1.4869   -2.8907   -1.6271 C.ar    1  UNL1        0.0279
     21 C          -2.0362    3.4286    1.8475 C.3     1  UNL1        0.0021
     22 C           2.0352   -3.7708   -0.7083 C.ar    1  UNL1       -0.0436
     23 C          -1.0590    4.1154    2.7643 C.ar    1  UNL1        0.0756
     24 C          -1.0776    4.1994    4.1392 C.ar    1  UNL1        0.1353
     25 C           0.0292    4.9408    4.6447 C.ar    1  UNL1       -0.0124
     26 C           0.8515    5.3947    3.6372 C.ar    1  UNL1       -0.0203
     27 C          -2.6744    2.4548    4.3868 C.3     1  UNL1        0.0788
     28 H          -1.6646    1.5356    2.4891 H       1  UNL1        0.2017
     29 H          -2.3460    1.6317    0.9615 H       1  UNL1        0.2017
     30 H           2.0834    1.8968    1.4769 H       1  UNL1        0.0302
     31 H           2.6010    0.2383    1.8785 H       1  UNL1        0.0302
     32 H           4.6369    1.6291    2.4657 H       1  UNL1        0.0293
     33 H           4.4653    3.0484    1.5180 H       1  UNL1        0.0293
     34 H           4.4274   -0.5217   -0.6355 H       1  UNL1        0.0293
     35 H           4.6127   -0.7389    1.0527 H       1  UNL1        0.0293
     36 H           1.0594    2.2516   -0.8707 H       1  UNL1        0.0296
     37 H           0.8746    0.8247   -1.9025 H       1  UNL1        0.0296
     38 H           6.8441    1.7313    1.7787 H       1  UNL1        0.0266
     39 H           6.4830    2.6431    0.3623 H       1  UNL1        0.0266
     40 H           6.3834    0.7140   -0.8713 H       1  UNL1        0.0266
     41 H           6.8570   -0.1844    0.5201 H       1  UNL1        0.0266
     42 H          -0.0089   -0.0399    1.6640 H       1  UNL1        0.0326
     43 H          -0.7025    0.0887    0.0539 H       1  UNL1        0.0326
     44 H           3.2463    0.5437   -2.0149 H       1  UNL1        0.0560
     45 H           2.8212    2.1815   -2.5004 H       1  UNL1        0.0560
     46 H           0.3788    2.3813    1.6638 H       1  UNL1        0.0814
     47 H          -0.3422    2.4885    0.0726 H       1  UNL1        0.0814
     48 H           2.4681   -1.5285    1.7377 H       1  UNL1        0.0636
     49 H           2.8100   -3.8949    1.2470 H       1  UNL1        0.0619
     50 H           1.2162   -3.2617   -2.5513 H       1  UNL1        0.0829
     51 H          -3.0077    3.4548    2.2951 H       1  UNL1        0.0873
     52 H          -2.0299    3.9438    0.9098 H       1  UNL1        0.0873
     53 H           2.1696   -4.7673   -0.9406 H       1  UNL1        0.0633
     54 H           0.1953    5.1170    5.6479 H       1  UNL1        0.0659
     55 H           1.7060    5.9509    3.7967 H       1  UNL1        0.0694
     56 H          -3.4143    2.1215    5.0843 H       1  UNL1        0.0660
     57 H          -1.9409    1.6878    4.2509 H       1  UNL1        0.0660
     58 H          -3.1410    2.6724    3.4487 H       1  UNL1        0.0660
@<TRIPOS>UNITY_ATOM_ATTR
5 1
charge 1
@<TRIPOS>BOND
     1     1    23   ar
     2     1    26   ar
     3     2     6    1
     4     2    15    1
     5     3    24    1
     6     3    27    1
     7     4    16   ar
     8     4    20   ar
     9     5    17    1
    10     5    21    1
    11     5    28    1
    12     5    29    1
    13     6     8    1
    14     6     9    1
    15     6    10    1
    16     7     8    1
    17     7    11    1
    18     7    14    1
    19     7    16    1
    20     8    30    1
    21     8    31    1
    22     9    12    1
    23     9    32    1
    24     9    33    1
    25    10    13    1
    26    10    34    1
    27    10    35    1
    28    11    15    1
    29    11    36    1
    30    11    37    1
    31    12    13    1
    32    12    38    1
    33    12    39    1
    34    13    40    1
    35    13    41    1
    36    14    17    1
    37    14    42    1
    38    14    43    1
    39    15    44    1
    40    15    45    1
    41    16    18   ar
    42    17    46    1
    43    17    47    1
    44    18    19   ar
    45    18    48    1
    46    19    22   ar
    47    19    49    1
    48    20    22   ar
    49    20    50    1
    50    21    23    1
    51    21    51    1
    52    21    52    1
    53    22    53    1
    54    23    24   ar
    55    24    25   ar
    56    25    26   ar
    57    25    54    1
    58    26    55    1
    59    27    56    1
    60    27    57    1
    61    27    58    1
@<TRIPOS>MOLECULE
66555030
 58 61 0 0 0
SMALL
GASTEIGER

@<TRIPOS>ATOM
      1 S           0.2377    3.2463    3.4045 S.2     1  UNL1       -0.0926
      2 O           3.7389    2.0185   -0.6934 O.3     1  UNL1       -0.3733
      3 O          -1.1234    0.4917    5.7497 O.3     1  UNL1       -0.4941
      4 N           1.2845   -1.5755   -1.3876 N.ar    1  UNL1       -0.2593
      5 N          -1.6674    2.0414    1.6033 N.4     1  UNL1        0.2308
      6 C           3.8512    1.2252    0.4942 C.3     1  UNL1        0.0704
      7 C           1.4231    0.3747    0.1125 C.3     1  UNL1        0.0224
      8 C           2.4643    0.9676    1.1076 C.3     1  UNL1       -0.0124
      9 C           4.7367    2.0144    1.4725 C.3     1  UNL1       -0.0237
     10 C           4.7153   -0.0215    0.2655 C.3     1  UNL1       -0.0237
     11 C           1.4573    1.2951   -1.1383 C.3     1  UNL1       -0.0181
     12 C           6.1616    1.8150    0.9589 C.3     1  UNL1       -0.0504
     13 C           6.1397    0.5192    0.1522 C.3     1  UNL1       -0.0504
     14 C           0.0115    0.4968    0.7385 C.3     1  UNL1       -0.0013
     15 C           2.8671    1.4887   -1.6863 C.3     1  UNL1        0.0492
     16 C           1.6501   -1.1244   -0.1669 C.ar    1  UNL1        0.0478
     17 C          -0.3430    1.9539    0.9995 C.3     1  UNL1       -0.0325
     18 C           2.2057   -1.9221    0.8205 C.ar    1  UNL1       -0.0398
     19 C           2.3986   -3.2695    0.5366 C.ar    1  UNL1       -0.0586
     20 C           1.4869   -2.8907   -1.6271 C.ar    1  UNL1        0.0279
     21 C          -1.7056    1.3346    2.8758 C.3     1  UNL1        0.0021
     22 C           2.0352   -3.7708   -0.7083 C.ar    1  UNL1       -0.0436
     23 C          -0.7319    1.9131    3.8678 C.ar    1  UNL1        0.0756
     24 C          -0.4824    1.5181    5.1638 C.ar    1  UNL1        0.1353
     25 C           0.5177    2.3209    5.7845 C.ar    1  UNL1       -0.0124
     26 C           0.9947    3.2985    4.9395 C.ar    1  UNL1       -0.0203
     27 C          -1.5764   -0.5778    4.9079 C.3     1  UNL1        0.0788
     28 H          -2.3511    1.6266    0.9702 H       1  UNL1        0.2017
     29 H          -1.8858    3.0238    1.7693 H       1  UNL1        0.2017
     30 H           2.0834    1.8968    1.4769 H       1  UNL1        0.0302
     31 H           2.6010    0.2383    1.8785 H       1  UNL1        0.0302
     32 H           4.6369    1.6291    2.4657 H       1  UNL1        0.0293
     33 H           4.4653    3.0484    1.5180 H       1  UNL1        0.0293
     34 H           4.4274   -0.5217   -0.6355 H       1  UNL1        0.0293
     35 H           4.6127   -0.7389    1.0527 H       1  UNL1        0.0293
     36 H           1.0594    2.2516   -0.8707 H       1  UNL1        0.0296
     37 H           0.8746    0.8247   -1.9025 H       1  UNL1        0.0296
     38 H           6.8441    1.7313    1.7787 H       1  UNL1        0.0266
     39 H           6.4830    2.6431    0.3623 H       1  UNL1        0.0266
     40 H           6.3834    0.7140   -0.8713 H       1  UNL1        0.0266
     41 H           6.8570   -0.1844    0.5201 H       1  UNL1        0.0266
     42 H          -0.0089   -0.0399    1.6640 H       1  UNL1        0.0326
     43 H          -0.7025    0.0887    0.0539 H       1  UNL1        0.0326
     44 H           3.2463    0.5437   -2.0149 H       1  UNL1        0.0560
     45 H           2.8212    2.1815   -2.5004 H       1  UNL1        0.0560
     46 H           0.3788    2.3813    1.6638 H       1  UNL1        0.0814
     47 H          -0.3422    2.4885    0.0726 H       1  UNL1        0.0814
     48 H           2.4681   -1.5285    1.7377 H       1  UNL1        0.0636
     49 H           2.8100   -3.8949    1.2470 H       1  UNL1        0.0619
     50 H           1.2162   -3.2617   -2.5513 H       1  UNL1        0.0829
     51 H          -1.4595    0.3069    2.7083 H       1  UNL1        0.0873
     52 H          -2.6908    1.4338    3.2811 H       1  UNL1        0.0873
     53 H           2.1696   -4.7673   -0.9406 H       1  UNL1        0.0633
     54 H           0.8463    2.1858    6.7535 H       1  UNL1        0.0659
     55 H           1.7225    3.9819    5.2007 H       1  UNL1        0.0694
     56 H          -2.0652   -1.3191    5.5049 H       1  UNL1        0.0660
     57 H          -0.7387   -1.0176    4.4081 H       1  UNL1        0.0660
     58 H          -2.2633   -0.1942    4.1826 H       1  UNL1        0.0660
@<TRIPOS>UNITY_ATOM_ATTR
5 1
charge 1
@<TRIPOS>BOND
     1     1    23   ar
     2     1    26   ar
     3     2     6    1
     4     2    15    1
     5     3    24    1
     6     3    27    1
     7     4    16   ar
     8     4    20   ar
     9     5    17    1
    10     5    21    1
    11     5    28    1
    12     5    29    1
    13     6     8    1
    14     6     9    1
    15     6    10    1
    16     7     8    1
    17     7    11    1
    18     7    14    1
    19     7    16    1
    20     8    30    1
    21     8    31    1
    22     9    12    1
    23     9    32    1
    24     9    33    1
    25    10    13    1
    26    10    34    1
    27    10    35    1
    28    11    15    1
    29    11    36    1
    30    11    37    1
    31    12    13    1
    32    12    38    1
    33    12    39    1
    34    13    40    1
    35    13    41    1
    36    14    17    1
    37    14    42    1
    38    14    43    1
    39    15    44    1
    40    15    45    1
    41    16    18   ar
    42    17    46    1
    43    17    47    1
    44    18    19   ar
    45    18    48    1
    46    19    22   ar
    47    19    49    1
    48    20    22   ar
    49    20    50    1
    50    21    23    1
    51    21    51    1
    52    21    52    1
    53    22    53    1
    54    23    24   ar
    55    24    25   ar
    56    25    26   ar
    57    25    54    1
    58    26    55    1
    59    27    56    1
    60    27    57    1
    61    27    58    1
@<TRIPOS>MOLECULE
66555030
 58 61 0 0 0
SMALL
GASTEIGER

@<TRIPOS>ATOM
      1 S          -1.0486    3.5867    4.1859 S.2     1  UNL1       -0.0926
      2 O           3.7389    2.0185   -0.6934 O.3     1  UNL1       -0.3733
      3 O           0.7140    0.1472    4.2448 O.3     1  UNL1       -0.4941
      4 N           0.7973   -1.7152   -1.0334 N.ar    1  UNL1       -0.2593
      5 N          -1.4031   -0.1338    2.6236 N.4     1  UNL1        0.2308
      6 C           3.8512    1.2252    0.4942 C.3     1  UNL1        0.0704
      7 C           1.4231    0.3747    0.1125 C.3     1  UNL1        0.0224
      8 C           2.4643    0.9676    1.1076 C.3     1  UNL1       -0.0124
      9 C           4.7367    2.0144    1.4725 C.3     1  UNL1       -0.0237
     10 C           4.7153   -0.0215    0.2655 C.3     1  UNL1       -0.0237
     11 C           1.4573    1.2951   -1.1383 C.3     1  UNL1       -0.0181
     12 C           6.1616    1.8150    0.9589 C.3     1  UNL1       -0.0504
     13 C           6.1397    0.5192    0.1522 C.3     1  UNL1       -0.0504
     14 C           0.0115    0.4968    0.7385 C.3     1  UNL1       -0.0013
     15 C           2.8671    1.4887   -1.6863 C.3     1  UNL1        0.0492
     16 C           1.6501   -1.1244   -0.1669 C.ar    1  UNL1        0.0478
     17 C          -0.0619   -0.2494    2.0632 C.3     1  UNL1       -0.0325
     18 C           2.6925   -1.7823    0.4660 C.ar    1  UNL1       -0.0398
     19 C           2.8712   -3.1336    0.1916 C.ar    1  UNL1       -0.0586
     20 C           1.0020   -3.0297   -1.2753 C.ar    1  UNL1        0.0279
     21 C          -1.7559    1.2618    2.8424 C.3     1  UNL1        0.0021
     22 C           2.0142   -3.7766   -0.6946 C.ar    1  UNL1       -0.0436
     23 C          -0.7968    1.9416    3.7831 C.ar    1  UNL1        0.0756
     24 C           0.3153    1.4208    4.4076 C.ar    1  UNL1        0.1353
     25 C           0.9689    2.3853    5.2279 C.ar    1  UNL1       -0.0124
     26 C           0.3318    3.6062    5.1988 C.ar    1  UNL1       -0.0203
     27 C           1.3933   -0.4828    5.3399 C.3     1  UNL1        0.0788
     28 H          -1.4370   -0.6305    3.5138 H       1  UNL1        0.2017
     29 H          -2.0678   -0.5387    1.9644 H       1  UNL1        0.2017
     30 H           2.0834    1.8968    1.4769 H       1  UNL1        0.0302
     31 H           2.6010    0.2383    1.8785 H       1  UNL1        0.0302
     32 H           4.6369    1.6291    2.4657 H       1  UNL1        0.0293
     33 H           4.4653    3.0484    1.5180 H       1  UNL1        0.0293
     34 H           4.4274   -0.5217   -0.6355 H       1  UNL1        0.0293
     35 H           4.6127   -0.7389    1.0527 H       1  UNL1        0.0293
     36 H           1.0594    2.2516   -0.8707 H       1  UNL1        0.0296
     37 H           0.8746    0.8247   -1.9025 H       1  UNL1        0.0296
     38 H           6.8441    1.7313    1.7787 H       1  UNL1        0.0266
     39 H           6.4830    2.6431    0.3623 H       1  UNL1        0.0266
     40 H           6.3834    0.7140   -0.8713 H       1  UNL1        0.0266
     41 H           6.8570   -0.1844    0.5201 H       1  UNL1        0.0266
     42 H          -0.7081    0.0833    0.0632 H       1  UNL1        0.0326
     43 H          -0.1948    1.5314    0.9172 H       1  UNL1        0.0326
     44 H           3.2463    0.5437   -2.0149 H       1  UNL1        0.0560
     45 H           2.8212    2.1815   -2.5004 H       1  UNL1        0.0560
     46 H           0.1675   -1.2821    1.9020 H       1  UNL1        0.0814
     47 H           0.6435    0.1751    2.7466 H       1  UNL1        0.0814
     48 H           3.3166   -1.2850    1.1204 H       1  UNL1        0.0636
     49 H           3.6368   -3.6573    0.6439 H       1  UNL1        0.0619
     50 H           0.3649   -3.5059   -1.9329 H       1  UNL1        0.0829
     51 H          -2.7405    1.3087    3.2585 H       1  UNL1        0.0873
     52 H          -1.7111    1.7671    1.9004 H       1  UNL1        0.0873
     53 H           2.1285   -4.7787   -0.9131 H       1  UNL1        0.0633
     54 H           1.8197    2.1919    5.7790 H       1  UNL1        0.0659
     55 H           0.6491    4.4350    5.7255 H       1  UNL1        0.0694
     56 H           1.6496   -1.4862    5.0709 H       1  UNL1        0.0660
     57 H           0.7527   -0.4958    6.1969 H       1  UNL1        0.0660
     58 H           2.2842    0.0638    5.5689 H       1  UNL1        0.0660
@<TRIPOS>UNITY_ATOM_ATTR
5 1
charge 1
@<TRIPOS>BOND
     1     1    23   ar
     2     1    26   ar
     3     2     6    1
     4     2    15    1
     5     3    24    1
     6     3    27    1
     7     4    16   ar
     8     4    20   ar
     9     5    17    1
    10     5    21    1
    11     5    28    1
    12     5    29    1
    13     6     8    1
    14     6     9    1
    15     6    10    1
    16     7     8    1
    17     7    11    1
    18     7    14    1
    19     7    16    1
    20     8    30    1
    21     8    31    1
    22     9    12    1
    23     9    32    1
    24     9    33    1
    25    10    13    1
    26    10    34    1
    27    10    35    1
    28    11    15    1
    29    11    36    1
    30    11    37    1
    31    12    13    1
    32    12    38    1
    33    12    39    1
    34    13    40    1
    35    13    41    1
    36    14    17    1
    37    14    42    1
    38    14    43    1
    39    15    44    1
    40    15    45    1
    41    16    18   ar
    42    17    46    1
    43    17    47    1
    44    18    19   ar
    45    18    48    1
    46    19    22   ar
    47    19    49    1
    48    20    22   ar
    49    20    50    1
    50    21    23    1
    51    21    51    1
    52    21    52    1
    53    22    53    1
    54    23    24   ar
    55    24    25   ar
    56    25    26   ar
    57    25    54    1
    58    26    55    1
    59    27    56    1
    60    27    57    1
    61    27    58    1
@<TRIPOS>MOLECULE
66555030
 58 61 0 0 0
SMALL
GASTEIGER

@<TRIPOS>ATOM
      1 S           0.0892    3.2998    3.2332 S.2     1  UNL1       -0.0926
      2 O           3.7389    2.0185   -0.6934 O.3     1  UNL1       -0.3733
      3 O          -1.0738    0.5984    5.7413 O.3     1  UNL1       -0.4941
      4 N           0.7973   -1.7152   -1.0334 N.ar    1  UNL1       -0.2593
      5 N          -1.4031   -0.1338    2.6236 N.4     1  UNL1        0.2308
      6 C           3.8512    1.2252    0.4942 C.3     1  UNL1        0.0704
      7 C           1.4231    0.3747    0.1125 C.3     1  UNL1        0.0224
      8 C           2.4643    0.9676    1.1076 C.3     1  UNL1       -0.0124
      9 C           4.7367    2.0144    1.4725 C.3     1  UNL1       -0.0237
     10 C           4.7153   -0.0215    0.2655 C.3     1  UNL1       -0.0237
     11 C           1.4573    1.2951   -1.1383 C.3     1  UNL1       -0.0181
     12 C           6.1616    1.8150    0.9589 C.3     1  UNL1       -0.0504
     13 C           6.1397    0.5192    0.1522 C.3     1  UNL1       -0.0504
     14 C           0.0115    0.4968    0.7385 C.3     1  UNL1       -0.0013
     15 C           2.8671    1.4887   -1.6863 C.3     1  UNL1        0.0492
     16 C           1.6501   -1.1244   -0.1669 C.ar    1  UNL1        0.0478
     17 C          -0.0619   -0.2494    2.0632 C.3     1  UNL1       -0.0325
     18 C           2.6925   -1.7823    0.4660 C.ar    1  UNL1       -0.0398
     19 C           2.8712   -3.1336    0.1916 C.ar    1  UNL1       -0.0586
     20 C           1.0020   -3.0297   -1.2753 C.ar    1  UNL1        0.0279
     21 C          -1.7559    1.2618    2.8424 C.3     1  UNL1        0.0021
     22 C           2.0142   -3.7766   -0.6946 C.ar    1  UNL1       -0.0436
     23 C          -0.7968    1.9416    3.7831 C.ar    1  UNL1        0.0756
     24 C          -0.5014    1.6268    5.0914 C.ar    1  UNL1        0.1353
     25 C           0.4648    2.5129    5.6496 C.ar    1  UNL1       -0.0124
     26 C           0.8712    3.4706    4.7469 C.ar    1  UNL1       -0.0203
     27 C          -1.2451    0.7204    7.1603 C.3     1  UNL1        0.0788
     28 H          -1.4370   -0.6305    3.5138 H       1  UNL1        0.2017
     29 H          -2.0678   -0.5387    1.9644 H       1  UNL1        0.2017
     30 H           2.0834    1.8968    1.4769 H       1  UNL1        0.0302
     31 H           2.6010    0.2383    1.8785 H       1  UNL1        0.0302
     32 H           4.6369    1.6291    2.4657 H       1  UNL1        0.0293
     33 H           4.4653    3.0484    1.5180 H       1  UNL1        0.0293
     34 H           4.4274   -0.5217   -0.6355 H       1  UNL1        0.0293
     35 H           4.6127   -0.7389    1.0527 H       1  UNL1        0.0293
     36 H           1.0594    2.2516   -0.8707 H       1  UNL1        0.0296
     37 H           0.8746    0.8247   -1.9025 H       1  UNL1        0.0296
     38 H           6.8441    1.7313    1.7787 H       1  UNL1        0.0266
     39 H           6.4830    2.6431    0.3623 H       1  UNL1        0.0266
     40 H           6.3834    0.7140   -0.8713 H       1  UNL1        0.0266
     41 H           6.8570   -0.1844    0.5201 H       1  UNL1        0.0266
     42 H          -0.7081    0.0833    0.0632 H       1  UNL1        0.0326
     43 H          -0.1948    1.5314    0.9172 H       1  UNL1        0.0326
     44 H           3.2463    0.5437   -2.0149 H       1  UNL1        0.0560
     45 H           2.8212    2.1815   -2.5004 H       1  UNL1        0.0560
     46 H           0.1675   -1.2821    1.9020 H       1  UNL1        0.0814
     47 H           0.6435    0.1751    2.7466 H       1  UNL1        0.0814
     48 H           3.3166   -1.2850    1.1204 H       1  UNL1        0.0636
     49 H           3.6368   -3.6573    0.6439 H       1  UNL1        0.0619
     50 H           0.3649   -3.5059   -1.9329 H       1  UNL1        0.0829
     51 H          -2.7405    1.3087    3.2585 H       1  UNL1        0.0873
     52 H          -1.7111    1.7671    1.9004 H       1  UNL1        0.0873
     53 H           2.1285   -4.7787   -0.9131 H       1  UNL1        0.0633
     54 H           0.8186    2.4450    6.6167 H       1  UNL1        0.0659
     55 H           1.5651    4.2046    4.9580 H       1  UNL1        0.0694
     56 H          -1.7094   -0.1653    7.5410 H       1  UNL1        0.0660
     57 H          -1.8636    1.5672    7.3734 H       1  UNL1        0.0660
     58 H          -0.2900    0.8504    7.6249 H       1  UNL1        0.0660
@<TRIPOS>UNITY_ATOM_ATTR
5 1
charge 1
@<TRIPOS>BOND
     1     1    23   ar
     2     1    26   ar
     3     2     6    1
     4     2    15    1
     5     3    24    1
     6     3    27    1
     7     4    16   ar
     8     4    20   ar
     9     5    17    1
    10     5    21    1
    11     5    28    1
    12     5    29    1
    13     6     8    1
    14     6     9    1
    15     6    10    1
    16     7     8    1
    17     7    11    1
    18     7    14    1
    19     7    16    1
    20     8    30    1
    21     8    31    1
    22     9    12    1
    23     9    32    1
    24     9    33    1
    25    10    13    1
    26    10    34    1
    27    10    35    1
    28    11    15    1
    29    11    36    1
    30    11    37    1
    31    12    13    1
    32    12    38    1
    33    12    39    1
    34    13    40    1
    35    13    41    1
    36    14    17    1
    37    14    42    1
    38    14    43    1
    39    15    44    1
    40    15    45    1
    41    16    18   ar
    42    17    46    1
    43    17    47    1
    44    18    19   ar
    45    18    48    1
    46    19    22   ar
    47    19    49    1
    48    20    22   ar
    49    20    50    1
    50    21    23    1
    51    21    51    1
    52    21    52    1
    53    22    53    1
    54    23    24   ar
    55    24    25   ar
    56    25    26   ar
    57    25    54    1
    58    26    55    1
    59    27    56    1
    60    27    57    1
    61    27    58    1
@<TRIPOS>MOLECULE
66555030
 58 61 0 0 0
SMALL
GASTEIGER

@<TRIPOS>ATOM
      1 S           0.8587    2.0423    3.3574 S.2     1  UNL1       -0.0926
      2 O           3.7389    2.0185   -0.6934 O.3     1  UNL1       -0.3733
      3 O          -2.2826    2.5744    5.5459 O.3     1  UNL1       -0.4941
      4 N           1.8907   -1.4719   -1.4509 N.ar    1  UNL1       -0.2593
      5 N          -1.4031   -0.1338    2.6236 N.4     1  UNL1        0.2308
      6 C           3.8512    1.2252    0.4942 C.3     1  UNL1        0.0704
      7 C           1.4231    0.3747    0.1125 C.3     1  UNL1        0.0224
      8 C           2.4643    0.9676    1.1076 C.3     1  UNL1       -0.0124
      9 C           4.7367    2.0144    1.4725 C.3     1  UNL1       -0.0237
     10 C           4.7153   -0.0215    0.2655 C.3     1  UNL1       -0.0237
     11 C           1.4573    1.2951   -1.1383 C.3     1  UNL1       -0.0181
     12 C           6.1616    1.8150    0.9589 C.3     1  UNL1       -0.0504
     13 C           6.1397    0.5192    0.1522 C.3     1  UNL1       -0.0504
     14 C           0.0115    0.4968    0.7385 C.3     1  UNL1       -0.0013
     15 C           2.8671    1.4887   -1.6863 C.3     1  UNL1        0.0492
     16 C           1.6501   -1.1244   -0.1669 C.ar    1  UNL1        0.0478
     17 C          -0.0619   -0.2494    2.0632 C.3     1  UNL1       -0.0325
     18 C           1.5996   -2.0257    0.8843 C.ar    1  UNL1       -0.0398
     19 C           1.8099   -3.3703    0.5992 C.ar    1  UNL1       -0.0586
     20 C           2.0900   -2.7877   -1.6896 C.ar    1  UNL1        0.0279
     21 C          -1.7559    1.2618    2.8424 C.3     1  UNL1        0.0021
     22 C           2.0605   -3.7667   -0.7097 C.ar    1  UNL1       -0.0436
     23 C          -0.7968    1.9416    3.7831 C.ar    1  UNL1        0.0756
     24 C          -1.0537    2.5295    5.0022 C.ar    1  UNL1        0.1353
     25 C           0.1242    3.0701    5.5942 C.ar    1  UNL1       -0.0124
     26 C           1.2363    2.8745    4.8054 C.ar    1  UNL1       -0.0203
     27 C          -3.4046    2.6098    4.6528 C.3     1  UNL1        0.0788
     28 H          -1.4370   -0.6305    3.5138 H       1  UNL1        0.2017
     29 H          -2.0678   -0.5387    1.9644 H       1  UNL1        0.2017
     30 H           2.0834    1.8968    1.4769 H       1  UNL1        0.0302
     31 H           2.6010    0.2383    1.8785 H       1  UNL1        0.0302
     32 H           4.6369    1.6291    2.4657 H       1  UNL1        0.0293
     33 H           4.4653    3.0484    1.5180 H       1  UNL1        0.0293
     34 H           4.4274   -0.5217   -0.6355 H       1  UNL1        0.0293
     35 H           4.6127   -0.7389    1.0527 H       1  UNL1        0.0293
     36 H           1.0594    2.2516   -0.8707 H       1  UNL1        0.0296
     37 H           0.8746    0.8247   -1.9025 H       1  UNL1        0.0296
     38 H           6.8441    1.7313    1.7787 H       1  UNL1        0.0266
     39 H           6.4830    2.6431    0.3623 H       1  UNL1        0.0266
     40 H           6.3834    0.7140   -0.8713 H       1  UNL1        0.0266
     41 H           6.8570   -0.1844    0.5201 H       1  UNL1        0.0266
     42 H          -0.7081    0.0833    0.0632 H       1  UNL1        0.0326
     43 H          -0.1948    1.5314    0.9172 H       1  UNL1        0.0326
     44 H           3.2463    0.5437   -2.0149 H       1  UNL1        0.0560
     45 H           2.8212    2.1815   -2.5004 H       1  UNL1        0.0560
     46 H           0.1675   -1.2821    1.9020 H       1  UNL1        0.0814
     47 H           0.6435    0.1751    2.7466 H       1  UNL1        0.0814
     48 H           1.4119   -1.7091    1.8484 H       1  UNL1        0.0636
     49 H           1.7800   -4.0712    1.3561 H       1  UNL1        0.0619
     50 H           2.2755   -3.0808   -2.6615 H       1  UNL1        0.0829
     51 H          -2.7405    1.3087    3.2585 H       1  UNL1        0.0873
     52 H          -1.7111    1.7671    1.9004 H       1  UNL1        0.0873
     53 H           2.2196   -4.7591   -0.9440 H       1  UNL1        0.0633
     54 H           0.1420    3.5516    6.5068 H       1  UNL1        0.0659
     55 H           2.1853    3.1922    5.0574 H       1  UNL1        0.0694
     56 H          -4.3112    2.6437    5.2201 H       1  UNL1        0.0660
     57 H          -3.4001    1.7330    4.0395 H       1  UNL1        0.0660
     58 H          -3.3393    3.4793    4.0325 H       1  UNL1        0.0660
@<TRIPOS>UNITY_ATOM_ATTR
5 1
charge 1
@<TRIPOS>BOND
     1     1    23   ar
     2     1    26   ar
     3     2     6    1
     4     2    15    1
     5     3    24    1
     6     3    27    1
     7     4    16   ar
     8     4    20   ar
     9     5    17    1
    10     5    21    1
    11     5    28    1
    12     5    29    1
    13     6     8    1
    14     6     9    1
    15     6    10    1
    16     7     8    1
    17     7    11    1
    18     7    14    1
    19     7    16    1
    20     8    30    1
    21     8    31    1
    22     9    12    1
    23     9    32    1
    24     9    33    1
    25    10    13    1
    26    10    34    1
    27    10    35    1
    28    11    15    1
    29    11    36    1
    30    11    37    1
    31    12    13    1
    32    12    38    1
    33    12    39    1
    34    13    40    1
    35    13    41    1
    36    14    17    1
    37    14    42    1
    38    14    43    1
    39    15    44    1
    40    15    45    1
    41    16    18   ar
    42    17    46    1
    43    17    47    1
    44    18    19   ar
    45    18    48    1
    46    19    22   ar
    47    19    49    1
    48    20    22   ar
    49    20    50    1
    50    21    23    1
    51    21    51    1
    52    21    52    1
    53    22    53    1
    54    23    24   ar
    55    24    25   ar
    56    25    26   ar
    57    25    54    1
    58    26    55    1
    59    27    56    1
    60    27    57    1
    61    27    58    1
@<TRIPOS>MOLECULE
66555030
 58 61 0 0 0
SMALL
GASTEIGER

@<TRIPOS>ATOM
      1 S          -1.1688    0.3974    6.3721 S.2     1  UNL1       -0.0926
      2 O           3.7389    2.0185   -0.6934 O.3     1  UNL1       -0.3733
      3 O           1.5488   -0.6132    3.8160 O.3     1  UNL1       -0.4941
      4 N           0.7973   -1.7152   -1.0334 N.ar    1  UNL1       -0.2593
      5 N          -1.4031   -0.1338    2.6236 N.4     1  UNL1        0.2308
      6 C           3.8512    1.2252    0.4942 C.3     1  UNL1        0.0704
      7 C           1.4231    0.3747    0.1125 C.3     1  UNL1        0.0224
      8 C           2.4643    0.9676    1.1076 C.3     1  UNL1       -0.0124
      9 C           4.7367    2.0144    1.4725 C.3     1  UNL1       -0.0237
     10 C           4.7153   -0.0215    0.2655 C.3     1  UNL1       -0.0237
     11 C           1.4573    1.2951   -1.1383 C.3     1  UNL1       -0.0181
     12 C           6.1616    1.8150    0.9589 C.3     1  UNL1       -0.0504
     13 C           6.1397    0.5192    0.1522 C.3     1  UNL1       -0.0504
     14 C           0.0115    0.4968    0.7385 C.3     1  UNL1       -0.0013
     15 C           2.8671    1.4887   -1.6863 C.3     1  UNL1        0.0492
     16 C           1.6501   -1.1244   -0.1669 C.ar    1  UNL1        0.0478
     17 C          -0.0619   -0.2494    2.0632 C.3     1  UNL1       -0.0325
     18 C           2.6925   -1.7823    0.4660 C.ar    1  UNL1       -0.0398
     19 C           2.8712   -3.1336    0.1916 C.ar    1  UNL1       -0.0586
     20 C           1.0020   -3.0297   -1.2753 C.ar    1  UNL1        0.0279
     21 C          -1.4936   -0.8268    3.9010 C.3     1  UNL1        0.0021
     22 C           2.0142   -3.7766   -0.6946 C.ar    1  UNL1       -0.0436
     23 C          -0.5422   -0.2544    4.9179 C.ar    1  UNL1        0.0756
     24 C           0.8314   -0.1664    4.8617 C.ar    1  UNL1        0.1353
     25 C           1.3765    0.4438    6.0281 C.ar    1  UNL1       -0.0124
     26 C           0.3990    0.7992    6.9311 C.ar    1  UNL1       -0.0203
     27 C           2.7785    0.0615    3.5155 C.3     1  UNL1        0.0788
     28 H          -2.0733   -0.5436    1.9730 H       1  UNL1        0.2017
     29 H          -1.6099    0.8537    2.7730 H       1  UNL1        0.2017
     30 H           2.0834    1.8968    1.4769 H       1  UNL1        0.0302
     31 H           2.6010    0.2383    1.8785 H       1  UNL1        0.0302
     32 H           4.6369    1.6291    2.4657 H       1  UNL1        0.0293
     33 H           4.4653    3.0484    1.5180 H       1  UNL1        0.0293
     34 H           4.4274   -0.5217   -0.6355 H       1  UNL1        0.0293
     35 H           4.6127   -0.7389    1.0527 H       1  UNL1        0.0293
     36 H           1.0594    2.2516   -0.8707 H       1  UNL1        0.0296
     37 H           0.8746    0.8247   -1.9025 H       1  UNL1        0.0296
     38 H           6.8441    1.7313    1.7787 H       1  UNL1        0.0266
     39 H           6.4830    2.6431    0.3623 H       1  UNL1        0.0266
     40 H           6.3834    0.7140   -0.8713 H       1  UNL1        0.0266
     41 H           6.8570   -0.1844    0.5201 H       1  UNL1        0.0266
     42 H          -0.7081    0.0833    0.0632 H       1  UNL1        0.0326
     43 H          -0.1948    1.5314    0.9172 H       1  UNL1        0.0326
     44 H           3.2463    0.5437   -2.0149 H       1  UNL1        0.0560
     45 H           2.8212    2.1815   -2.5004 H       1  UNL1        0.0560
     46 H           0.1675   -1.2821    1.9020 H       1  UNL1        0.0814
     47 H           0.6435    0.1751    2.7466 H       1  UNL1        0.0814
     48 H           3.3166   -1.2850    1.1204 H       1  UNL1        0.0636
     49 H           3.6368   -3.6573    0.6439 H       1  UNL1        0.0619
     50 H           0.3649   -3.5059   -1.9329 H       1  UNL1        0.0829
     51 H          -1.2598   -1.8601    3.7514 H       1  UNL1        0.0873
     52 H          -2.4894   -0.7070    4.2737 H       1  UNL1        0.0873
     53 H           2.1285   -4.7787   -0.9131 H       1  UNL1        0.0633
     54 H           2.3853    0.6010    6.1788 H       1  UNL1        0.0659
     55 H           0.5891    1.2540    7.8378 H       1  UNL1        0.0694
     56 H           3.2389   -0.3978    2.6657 H       1  UNL1        0.0660
     57 H           3.4363   -0.0046    4.3568 H       1  UNL1        0.0660
     58 H           2.5774    1.0901    3.2998 H       1  UNL1        0.0660
@<TRIPOS>UNITY_ATOM_ATTR
5 1
charge 1
@<TRIPOS>BOND
     1     1    23   ar
     2     1    26   ar
     3     2     6    1
     4     2    15    1
     5     3    24    1
     6     3    27    1
     7     4    16   ar
     8     4    20   ar
     9     5    17    1
    10     5    21    1
    11     5    28    1
    12     5    29    1
    13     6     8    1
    14     6     9    1
    15     6    10    1
    16     7     8    1
    17     7    11    1
    18     7    14    1
    19     7    16    1
    20     8    30    1
    21     8    31    1
    22     9    12    1
    23     9    32    1
    24     9    33    1
    25    10    13    1
    26    10    34    1
    27    10    35    1
    28    11    15    1
    29    11    36    1
    30    11    37    1
    31    12    13    1
    32    12    38    1
    33    12    39    1
    34    13    40    1
    35    13    41    1
    36    14    17    1
    37    14    42    1
    38    14    43    1
    39    15    44    1
    40    15    45    1
    41    16    18   ar
    42    17    46    1
    43    17    47    1
    44    18    19   ar
    45    18    48    1
    46    19    22   ar
    47    19    49    1
    48    20    22   ar
    49    20    50    1
    50    21    23    1
    51    21    51    1
    52    21    52    1
    53    22    53    1
    54    23    24   ar
    55    24    25   ar
    56    25    26   ar
    57    25    54    1
    58    26    55    1
    59    27    56    1
    60    27    57    1
    61    27    58    1
@<TRIPOS>MOLECULE
66555030
 58 61 0 0 0
SMALL
GASTEIGER

@<TRIPOS>ATOM
      1 S          -1.1688    0.3974    6.3721 S.2     1  UNL1       -0.0926
      2 O           3.7389    2.0185   -0.6934 O.3     1  UNL1       -0.3733
      3 O           1.5488   -0.6132    3.8160 O.3     1  UNL1       -0.4941
      4 N           1.5734   -1.9572    0.8951 N.ar    1  UNL1       -0.2593
      5 N          -1.4031   -0.1338    2.6236 N.4     1  UNL1        0.2308
      6 C           3.8512    1.2252    0.4942 C.3     1  UNL1        0.0704
      7 C           1.4231    0.3747    0.1125 C.3     1  UNL1        0.0224
      8 C           2.4643    0.9676    1.1076 C.3     1  UNL1       -0.0124
      9 C           4.7367    2.0144    1.4725 C.3     1  UNL1       -0.0237
     10 C           4.7153   -0.0215    0.2655 C.3     1  UNL1       -0.0237
     11 C           1.4573    1.2951   -1.1383 C.3     1  UNL1       -0.0181
     12 C           6.1616    1.8150    0.9589 C.3     1  UNL1       -0.0504
     13 C           6.1397    0.5192    0.1522 C.3     1  UNL1       -0.0504
     14 C           0.0115    0.4968    0.7385 C.3     1  UNL1       -0.0013
     15 C           2.8671    1.4887   -1.6863 C.3     1  UNL1        0.0492
     16 C           1.6501   -1.1244   -0.1669 C.ar    1  UNL1        0.0478
     17 C          -0.0619   -0.2494    2.0632 C.3     1  UNL1       -0.0325
     18 C           1.9150   -1.5407   -1.4617 C.ar    1  UNL1       -0.0398
     19 C           2.1137   -2.8994   -1.6805 C.ar    1  UNL1       -0.0586
     20 C           1.7723   -3.2707    0.6437 C.ar    1  UNL1        0.0279
     21 C          -1.4936   -0.8268    3.9010 C.3     1  UNL1        0.0021
     22 C           2.0424   -3.7875   -0.6130 C.ar    1  UNL1       -0.0436
     23 C          -0.5422   -0.2544    4.9179 C.ar    1  UNL1        0.0756
     24 C           0.8314   -0.1664    4.8617 C.ar    1  UNL1        0.1353
     25 C           1.3765    0.4438    6.0281 C.ar    1  UNL1       -0.0124
     26 C           0.3990    0.7992    6.9311 C.ar    1  UNL1       -0.0203
     27 C           2.7785    0.0615    3.5155 C.3     1  UNL1        0.0788
     28 H          -2.0733   -0.5436    1.9730 H       1  UNL1        0.2017
     29 H          -1.6099    0.8537    2.7730 H       1  UNL1        0.2017
     30 H           2.0834    1.8968    1.4769 H       1  UNL1        0.0302
     31 H           2.6010    0.2383    1.8785 H       1  UNL1        0.0302
     32 H           4.6369    1.6291    2.4657 H       1  UNL1        0.0293
     33 H           4.4653    3.0484    1.5180 H       1  UNL1        0.0293
     34 H           4.4274   -0.5217   -0.6355 H       1  UNL1        0.0293
     35 H           4.6127   -0.7389    1.0527 H       1  UNL1        0.0293
     36 H           1.0594    2.2516   -0.8707 H       1  UNL1        0.0296
     37 H           0.8746    0.8247   -1.9025 H       1  UNL1        0.0296
     38 H           6.8441    1.7313    1.7787 H       1  UNL1        0.0266
     39 H           6.4830    2.6431    0.3623 H       1  UNL1        0.0266
     40 H           6.3834    0.7140   -0.8713 H       1  UNL1        0.0266
     41 H           6.8570   -0.1844    0.5201 H       1  UNL1        0.0266
     42 H          -0.7081    0.0833    0.0632 H       1  UNL1        0.0326
     43 H          -0.1948    1.5314    0.9172 H       1  UNL1        0.0326
     44 H           3.2463    0.5437   -2.0149 H       1  UNL1        0.0560
     45 H           2.8212    2.1815   -2.5004 H       1  UNL1        0.0560
     46 H           0.1675   -1.2821    1.9020 H       1  UNL1        0.0814
     47 H           0.6435    0.1751    2.7466 H       1  UNL1        0.0814
     48 H           1.9632   -0.8638   -2.2391 H       1  UNL1        0.0636
     49 H           2.3131   -3.2473   -2.6314 H       1  UNL1        0.0619
     50 H           1.7197   -3.9288    1.4369 H       1  UNL1        0.0829
     51 H          -1.2598   -1.8601    3.7514 H       1  UNL1        0.0873
     52 H          -2.4894   -0.7070    4.2737 H       1  UNL1        0.0873
     53 H           2.1863   -4.7999   -0.7525 H       1  UNL1        0.0633
     54 H           2.3853    0.6010    6.1788 H       1  UNL1        0.0659
     55 H           0.5891    1.2540    7.8378 H       1  UNL1        0.0694
     56 H           3.2389   -0.3978    2.6657 H       1  UNL1        0.0660
     57 H           3.4363   -0.0046    4.3568 H       1  UNL1        0.0660
     58 H           2.5774    1.0901    3.2998 H       1  UNL1        0.0660
@<TRIPOS>UNITY_ATOM_ATTR
5 1
charge 1
@<TRIPOS>BOND
     1     1    23   ar
     2     1    26   ar
     3     2     6    1
     4     2    15    1
     5     3    24    1
     6     3    27    1
     7     4    16   ar
     8     4    20   ar
     9     5    17    1
    10     5    21    1
    11     5    28    1
    12     5    29    1
    13     6     8    1
    14     6     9    1
    15     6    10    1
    16     7     8    1
    17     7    11    1
    18     7    14    1
    19     7    16    1
    20     8    30    1
    21     8    31    1
    22     9    12    1
    23     9    32    1
    24     9    33    1
    25    10    13    1
    26    10    34    1
    27    10    35    1
    28    11    15    1
    29    11    36    1
    30    11    37    1
    31    12    13    1
    32    12    38    1
    33    12    39    1
    34    13    40    1
    35    13    41    1
    36    14    17    1
    37    14    42    1
    38    14    43    1
    39    15    44    1
    40    15    45    1
    41    16    18   ar
    42    17    46    1
    43    17    47    1
    44    18    19   ar
    45    18    48    1
    46    19    22   ar
    47    19    49    1
    48    20    22   ar
    49    20    50    1
    50    21    23    1
    51    21    51    1
    52    21    52    1
    53    22    53    1
    54    23    24   ar
    55    24    25   ar
    56    25    26   ar
    57    25    54    1
    58    26    55    1
    59    27    56    1
    60    27    57    1
    61    27    58    1
@<TRIPOS>MOLECULE
66555030
 58 61 0 0 0
SMALL
GASTEIGER

@<TRIPOS>ATOM
      1 S          -3.1833   -3.0533    0.6461 S.2     1  UNL1       -0.0926
      2 O           3.7389    2.0185   -0.6934 O.3     1  UNL1       -0.3733
      3 O          -2.9166   -2.0032   -3.0642 O.3     1  UNL1       -0.4941
      4 N           0.7973   -1.7152   -1.0334 N.ar    1  UNL1       -0.2593
      5 N          -2.3661    0.0561    0.4148 N.4     1  UNL1        0.2308
      6 C           3.8512    1.2252    0.4942 C.3     1  UNL1        0.0704
      7 C           1.4231    0.3747    0.1125 C.3     1  UNL1        0.0224
      8 C           2.4643    0.9676    1.1076 C.3     1  UNL1       -0.0124
      9 C           4.7367    2.0144    1.4725 C.3     1  UNL1       -0.0237
     10 C           4.7153   -0.0215    0.2655 C.3     1  UNL1       -0.0237
     11 C           1.4573    1.2951   -1.1383 C.3     1  UNL1       -0.0181
     12 C           6.1616    1.8150    0.9589 C.3     1  UNL1       -0.0504
     13 C           6.1397    0.5192    0.1522 C.3     1  UNL1       -0.0504
     14 C           0.0115    0.4968    0.7385 C.3     1  UNL1       -0.0013
     15 C           2.8671    1.4887   -1.6863 C.3     1  UNL1        0.0492
     16 C           1.6501   -1.1244   -0.1669 C.ar    1  UNL1        0.0478
     17 C          -1.0463   -0.0856   -0.1884 C.3     1  UNL1       -0.0325
     18 C           2.6925   -1.7823    0.4660 C.ar    1  UNL1       -0.0398
     19 C           2.8712   -3.1336    0.1916 C.ar    1  UNL1       -0.0586
     20 C           1.0020   -3.0297   -1.2753 C.ar    1  UNL1        0.0279
     21 C          -3.3944   -0.5095   -0.4471 C.3     1  UNL1        0.0021
     22 C           2.0142   -3.7766   -0.6946 C.ar    1  UNL1       -0.0436
     23 C          -3.1775   -1.9798   -0.6879 C.ar    1  UNL1        0.0756
     24 C          -2.9627   -2.6372   -1.8795 C.ar    1  UNL1        0.1353
     25 C          -2.8013   -4.0407   -1.6945 C.ar    1  UNL1       -0.0124
     26 C          -2.8985   -4.4025   -0.3690 C.ar    1  UNL1       -0.0203
     27 C          -3.1031   -0.5810   -3.0658 C.3     1  UNL1        0.0788
     28 H          -2.5614    1.0463    0.5623 H       1  UNL1        0.2017
     29 H          -2.3739   -0.4445    1.3035 H       1  UNL1        0.2017
     30 H           2.0834    1.8968    1.4769 H       1  UNL1        0.0302
     31 H           2.6010    0.2383    1.8785 H       1  UNL1        0.0302
     32 H           4.6369    1.6291    2.4657 H       1  UNL1        0.0293
     33 H           4.4653    3.0484    1.5180 H       1  UNL1        0.0293
     34 H           4.4274   -0.5217   -0.6355 H       1  UNL1        0.0293
     35 H           4.6127   -0.7389    1.0527 H       1  UNL1        0.0293
     36 H           1.0594    2.2516   -0.8707 H       1  UNL1        0.0296
     37 H           0.8746    0.8247   -1.9025 H       1  UNL1        0.0296
     38 H           6.8441    1.7313    1.7787 H       1  UNL1        0.0266
     39 H           6.4830    2.6431    0.3623 H       1  UNL1        0.0266
     40 H           6.3834    0.7140   -0.8713 H       1  UNL1        0.0266
     41 H           6.8570   -0.1844    0.5201 H       1  UNL1        0.0266
     42 H          -0.2061    1.5298    0.9131 H       1  UNL1        0.0326
     43 H          -0.0026   -0.0489    1.6588 H       1  UNL1        0.0326
     44 H           3.2463    0.5437   -2.0149 H       1  UNL1        0.0560
     45 H           2.8212    2.1815   -2.5004 H       1  UNL1        0.0560
     46 H          -1.0252    0.4356   -1.1226 H       1  UNL1        0.0814
     47 H          -0.8415   -1.1235   -0.3488 H       1  UNL1        0.0814
     48 H           3.3166   -1.2850    1.1204 H       1  UNL1        0.0636
     49 H           3.6368   -3.6573    0.6439 H       1  UNL1        0.0619
     50 H           0.3649   -3.5059   -1.9329 H       1  UNL1        0.0829
     51 H          -3.3775    0.0014   -1.3871 H       1  UNL1        0.0873
     52 H          -4.3393   -0.3888    0.0402 H       1  UNL1        0.0873
     53 H           2.1285   -4.7787   -0.9131 H       1  UNL1        0.0633
     54 H          -2.6315   -4.7079   -2.4633 H       1  UNL1        0.0659
     55 H          -2.8100   -5.3725   -0.0279 H       1  UNL1        0.0694
     56 H          -3.0417   -0.2143   -4.0691 H       1  UNL1        0.0660
     57 H          -2.3421   -0.1209   -2.4707 H       1  UNL1        0.0660
     58 H          -4.0645   -0.3469   -2.6586 H       1  UNL1        0.0660
@<TRIPOS>UNITY_ATOM_ATTR
5 1
charge 1
@<TRIPOS>BOND
     1     1    23   ar
     2     1    26   ar
     3     2     6    1
     4     2    15    1
     5     3    24    1
     6     3    27    1
     7     4    16   ar
     8     4    20   ar
     9     5    17    1
    10     5    21    1
    11     5    28    1
    12     5    29    1
    13     6     8    1
    14     6     9    1
    15     6    10    1
    16     7     8    1
    17     7    11    1
    18     7    14    1
    19     7    16    1
    20     8    30    1
    21     8    31    1
    22     9    12    1
    23     9    32    1
    24     9    33    1
    25    10    13    1
    26    10    34    1
    27    10    35    1
    28    11    15    1
    29    11    36    1
    30    11    37    1
    31    12    13    1
    32    12    38    1
    33    12    39    1
    34    13    40    1
    35    13    41    1
    36    14    17    1
    37    14    42    1
    38    14    43    1
    39    15    44    1
    40    15    45    1
    41    16    18   ar
    42    17    46    1
    43    17    47    1
    44    18    19   ar
    45    18    48    1
    46    19    22   ar
    47    19    49    1
    48    20    22   ar
    49    20    50    1
    50    21    23    1
    51    21    51    1
    52    21    52    1
    53    22    53    1
    54    23    24   ar
    55    24    25   ar
    56    25    26   ar
    57    25    54    1
    58    26    55    1
    59    27    56    1
    60    27    57    1
    61    27    58    1
@<TRIPOS>MOLECULE
66555030
 58 61 0 0 0
SMALL
GASTEIGER

@<TRIPOS>ATOM
      1 S          -4.2713   -2.8305   -1.6939 S.2     1  UNL1       -0.0926
      2 O           3.7389    2.0185   -0.6934 O.3     1  UNL1       -0.3733
      3 O          -1.2063   -2.3532    0.6122 O.3     1  UNL1       -0.4941
      4 N           0.5529   -1.8606   -0.4523 N.ar    1  UNL1       -0.2593
      5 N          -2.3661    0.0561    0.4148 N.4     1  UNL1        0.2308
      6 C           3.8512    1.2252    0.4942 C.3     1  UNL1        0.0704
      7 C           1.4231    0.3747    0.1125 C.3     1  UNL1        0.0224
      8 C           2.4643    0.9676    1.1076 C.3     1  UNL1       -0.0124
      9 C           4.7367    2.0144    1.4725 C.3     1  UNL1       -0.0237
     10 C           4.7153   -0.0215    0.2655 C.3     1  UNL1       -0.0237
     11 C           1.4573    1.2951   -1.1383 C.3     1  UNL1       -0.0181
     12 C           6.1616    1.8150    0.9589 C.3     1  UNL1       -0.0504
     13 C           6.1397    0.5192    0.1522 C.3     1  UNL1       -0.0504
     14 C           0.0115    0.4968    0.7385 C.3     1  UNL1       -0.0013
     15 C           2.8671    1.4887   -1.6863 C.3     1  UNL1        0.0492
     16 C           1.6501   -1.1244   -0.1669 C.ar    1  UNL1        0.0478
     17 C          -1.0463   -0.0856   -0.1884 C.3     1  UNL1       -0.0325
     18 C           2.9364   -1.6370   -0.1153 C.ar    1  UNL1       -0.0398
     19 C           3.1075   -2.9925   -0.3735 C.ar    1  UNL1       -0.0586
     20 C           0.7583   -3.1743   -0.6974 C.ar    1  UNL1        0.0279
     21 C          -3.3944   -0.5095   -0.4471 C.3     1  UNL1        0.0021
     22 C           2.0028   -3.7827   -0.6710 C.ar    1  UNL1       -0.0436
     23 C          -3.1775   -1.9798   -0.6879 C.ar    1  UNL1        0.0756
     24 C          -2.1817   -2.7971   -0.1998 C.ar    1  UNL1        0.1353
     25 C          -2.3185   -4.1392   -0.6582 C.ar    1  UNL1       -0.0124
     26 C          -3.4135   -4.2967   -1.4788 C.ar    1  UNL1       -0.0203
     27 C          -0.6581   -3.2784    1.5615 C.3     1  UNL1        0.0788
     28 H          -2.5614    1.0463    0.5623 H       1  UNL1        0.2017
     29 H          -2.3739   -0.4445    1.3035 H       1  UNL1        0.2017
     30 H           2.0834    1.8968    1.4769 H       1  UNL1        0.0302
     31 H           2.6010    0.2383    1.8785 H       1  UNL1        0.0302
     32 H           4.6369    1.6291    2.4657 H       1  UNL1        0.0293
     33 H           4.4653    3.0484    1.5180 H       1  UNL1        0.0293
     34 H           4.4274   -0.5217   -0.6355 H       1  UNL1        0.0293
     35 H           4.6127   -0.7389    1.0527 H       1  UNL1        0.0293
     36 H           1.0594    2.2516   -0.8707 H       1  UNL1        0.0296
     37 H           0.8746    0.8247   -1.9025 H       1  UNL1        0.0296
     38 H           6.8441    1.7313    1.7787 H       1  UNL1        0.0266
     39 H           6.4830    2.6431    0.3623 H       1  UNL1        0.0266
     40 H           6.3834    0.7140   -0.8713 H       1  UNL1        0.0266
     41 H           6.8570   -0.1844    0.5201 H       1  UNL1        0.0266
     42 H          -0.2061    1.5298    0.9131 H       1  UNL1        0.0326
     43 H          -0.0026   -0.0489    1.6588 H       1  UNL1        0.0326
     44 H           3.2463    0.5437   -2.0149 H       1  UNL1        0.0560
     45 H           2.8212    2.1815   -2.5004 H       1  UNL1        0.0560
     46 H          -1.0252    0.4356   -1.1226 H       1  UNL1        0.0814
     47 H          -0.8415   -1.1235   -0.3488 H       1  UNL1        0.0814
     48 H           3.7420   -1.0318    0.1077 H       1  UNL1        0.0636
     49 H           4.0506   -3.4104   -0.3443 H       1  UNL1        0.0619
     50 H          -0.0624   -3.7598   -0.9176 H       1  UNL1        0.0829
     51 H          -3.3775    0.0014   -1.3871 H       1  UNL1        0.0873
     52 H          -4.3393   -0.3888    0.0402 H       1  UNL1        0.0873
     53 H           2.1066   -4.7908   -0.8661 H       1  UNL1        0.0633
     54 H          -1.6729   -4.9036   -0.4052 H       1  UNL1        0.0659
     55 H          -3.6849   -5.1927   -1.9128 H       1  UNL1        0.0694
     56 H           0.1024   -2.7917    2.1356 H       1  UNL1        0.0660
     57 H          -0.2343   -4.1127    1.0426 H       1  UNL1        0.0660
     58 H          -1.4336   -3.6209    2.2144 H       1  UNL1        0.0660
@<TRIPOS>UNITY_ATOM_ATTR
5 1
charge 1
@<TRIPOS>BOND
     1     1    23   ar
     2     1    26   ar
     3     2     6    1
     4     2    15    1
     5     3    24    1
     6     3    27    1
     7     4    16   ar
     8     4    20   ar
     9     5    17    1
    10     5    21    1
    11     5    28    1
    12     5    29    1
    13     6     8    1
    14     6     9    1
    15     6    10    1
    16     7     8    1
    17     7    11    1
    18     7    14    1
    19     7    16    1
    20     8    30    1
    21     8    31    1
    22     9    12    1
    23     9    32    1
    24     9    33    1
    25    10    13    1
    26    10    34    1
    27    10    35    1
    28    11    15    1
    29    11    36    1
    30    11    37    1
    31    12    13    1
    32    12    38    1
    33    12    39    1
    34    13    40    1
    35    13    41    1
    36    14    17    1
    37    14    42    1
    38    14    43    1
    39    15    44    1
    40    15    45    1
    41    16    18   ar
    42    17    46    1
    43    17    47    1
    44    18    19   ar
    45    18    48    1
    46    19    22   ar
    47    19    49    1
    48    20    22   ar
    49    20    50    1
    50    21    23    1
    51    21    51    1
    52    21    52    1
    53    22    53    1
    54    23    24   ar
    55    24    25   ar
    56    25    26   ar
    57    25    54    1
    58    26    55    1
    59    27    56    1
    60    27    57    1
    61    27    58    1
@<TRIPOS>MOLECULE
66555030
 58 61 0 0 0
SMALL
GASTEIGER

@<TRIPOS>ATOM
      1 S          -2.4806    3.4412   -0.8934 S.2     1  UNL1       -0.0926
      2 O           3.7389    2.0185   -0.6934 O.3     1  UNL1       -0.3733
      3 O          -1.5061    6.3992    1.3960 O.3     1  UNL1       -0.4941
      4 N           1.5734   -1.9572    0.8951 N.ar    1  UNL1       -0.2593
      5 N          -1.6674    2.0414    1.6033 N.4     1  UNL1        0.2308
      6 C           3.8512    1.2252    0.4942 C.3     1  UNL1        0.0704
      7 C           1.4231    0.3747    0.1125 C.3     1  UNL1        0.0224
      8 C           2.4643    0.9676    1.1076 C.3     1  UNL1       -0.0124
      9 C           4.7367    2.0144    1.4725 C.3     1  UNL1       -0.0237
     10 C           4.7153   -0.0215    0.2655 C.3     1  UNL1       -0.0237
     11 C           1.4573    1.2951   -1.1383 C.3     1  UNL1       -0.0181
     12 C           6.1616    1.8150    0.9589 C.3     1  UNL1       -0.0504
     13 C           6.1397    0.5192    0.1522 C.3     1  UNL1       -0.0504
     14 C           0.0115    0.4968    0.7385 C.3     1  UNL1       -0.0013
     15 C           2.8671    1.4887   -1.6863 C.3     1  UNL1        0.0492
     16 C           1.6501   -1.1244   -0.1669 C.ar    1  UNL1        0.0478
     17 C          -0.3430    1.9539    0.9995 C.3     1  UNL1       -0.0325
     18 C           1.9150   -1.5407   -1.4617 C.ar    1  UNL1       -0.0398
     19 C           2.1137   -2.8994   -1.6805 C.ar    1  UNL1       -0.0586
     20 C           1.7723   -3.2707    0.6437 C.ar    1  UNL1        0.0279
     21 C          -2.0362    3.4286    1.8475 C.3     1  UNL1        0.0021
     22 C           2.0424   -3.7875   -0.6130 C.ar    1  UNL1       -0.0436
     23 C          -2.0811    4.2294    0.5733 C.ar    1  UNL1        0.0756
     24 C          -1.8380    5.5728    0.3887 C.ar    1  UNL1        0.1353
     25 C          -1.9821    5.9599   -0.9749 C.ar    1  UNL1       -0.0124
     26 C          -2.3295    4.8980   -1.7804 C.ar    1  UNL1       -0.0203
     27 C          -0.7909    5.8406    2.5069 C.3     1  UNL1        0.0788
     28 H          -1.6646    1.5356    2.4891 H       1  UNL1        0.2017
     29 H          -2.3460    1.6317    0.9615 H       1  UNL1        0.2017
     30 H           2.0834    1.8968    1.4769 H       1  UNL1        0.0302
     31 H           2.6010    0.2383    1.8785 H       1  UNL1        0.0302
     32 H           4.6369    1.6291    2.4657 H       1  UNL1        0.0293
     33 H           4.4653    3.0484    1.5180 H       1  UNL1        0.0293
     34 H           4.4274   -0.5217   -0.6355 H       1  UNL1        0.0293
     35 H           4.6127   -0.7389    1.0527 H       1  UNL1        0.0293
     36 H           1.0594    2.2516   -0.8707 H       1  UNL1        0.0296
     37 H           0.8746    0.8247   -1.9025 H       1  UNL1        0.0296
     38 H           6.8441    1.7313    1.7787 H       1  UNL1        0.0266
     39 H           6.4830    2.6431    0.3623 H       1  UNL1        0.0266
     40 H           6.3834    0.7140   -0.8713 H       1  UNL1        0.0266
     41 H           6.8570   -0.1844    0.5201 H       1  UNL1        0.0266
     42 H          -0.0089   -0.0399    1.6640 H       1  UNL1        0.0326
     43 H          -0.7025    0.0887    0.0539 H       1  UNL1        0.0326
     44 H           3.2463    0.5437   -2.0149 H       1  UNL1        0.0560
     45 H           2.8212    2.1815   -2.5004 H       1  UNL1        0.0560
     46 H           0.3788    2.3813    1.6638 H       1  UNL1        0.0814
     47 H          -0.3422    2.4885    0.0726 H       1  UNL1        0.0814
     48 H           1.9632   -0.8638   -2.2391 H       1  UNL1        0.0636
     49 H           2.3131   -3.2473   -2.6314 H       1  UNL1        0.0619
     50 H           1.7197   -3.9288    1.4369 H       1  UNL1        0.0829
     51 H          -1.3164    3.8671    2.5067 H       1  UNL1        0.0873
     52 H          -3.0140    3.4406    2.2818 H       1  UNL1        0.0873
     53 H           2.1863   -4.7999   -0.7525 H       1  UNL1        0.0633
     54 H          -1.8426    6.9230   -1.3187 H       1  UNL1        0.0659
     55 H          -2.4808    4.9717   -2.7986 H       1  UNL1        0.0694
     56 H          -0.5954    6.6074    3.2272 H       1  UNL1        0.0660
     57 H           0.1353    5.4287    2.1641 H       1  UNL1        0.0660
     58 H          -1.3791    5.0690    2.9582 H       1  UNL1        0.0660
@<TRIPOS>UNITY_ATOM_ATTR
5 1
charge 1
@<TRIPOS>BOND
     1     1    23   ar
     2     1    26   ar
     3     2     6    1
     4     2    15    1
     5     3    24    1
     6     3    27    1
     7     4    16   ar
     8     4    20   ar
     9     5    17    1
    10     5    21    1
    11     5    28    1
    12     5    29    1
    13     6     8    1
    14     6     9    1
    15     6    10    1
    16     7     8    1
    17     7    11    1
    18     7    14    1
    19     7    16    1
    20     8    30    1
    21     8    31    1
    22     9    12    1
    23     9    32    1
    24     9    33    1
    25    10    13    1
    26    10    34    1
    27    10    35    1
    28    11    15    1
    29    11    36    1
    30    11    37    1
    31    12    13    1
    32    12    38    1
    33    12    39    1
    34    13    40    1
    35    13    41    1
    36    14    17    1
    37    14    42    1
    38    14    43    1
    39    15    44    1
    40    15    45    1
    41    16    18   ar
    42    17    46    1
    43    17    47    1
    44    18    19   ar
    45    18    48    1
    46    19    22   ar
    47    19    49    1
    48    20    22   ar
    49    20    50    1
    50    21    23    1
    51    21    51    1
    52    21    52    1
    53    22    53    1
    54    23    24   ar
    55    24    25   ar
    56    25    26   ar
    57    25    54    1
    58    26    55    1
    59    27    56    1
    60    27    57    1
    61    27    58    1
@<TRIPOS>MOLECULE
66555030
 58 61 0 0 0
SMALL
GASTEIGER

@<TRIPOS>ATOM
      1 S          -1.5821   -2.6015   -0.6701 S.2     1  UNL1       -0.0926
      2 O           3.7389    2.0185   -0.6934 O.3     1  UNL1       -0.3733
      3 O          -5.4320   -2.7132   -0.9956 O.3     1  UNL1       -0.4941
      4 N           2.6903   -1.7085    0.4687 N.ar    1  UNL1       -0.2593
      5 N          -2.3661    0.0561    0.4148 N.4     1  UNL1        0.2308
      6 C           3.8512    1.2252    0.4942 C.3     1  UNL1        0.0704
      7 C           1.4231    0.3747    0.1125 C.3     1  UNL1        0.0224
      8 C           2.4643    0.9676    1.1076 C.3     1  UNL1       -0.0124
      9 C           4.7367    2.0144    1.4725 C.3     1  UNL1       -0.0237
     10 C           4.7153   -0.0215    0.2655 C.3     1  UNL1       -0.0237
     11 C           1.4573    1.2951   -1.1383 C.3     1  UNL1       -0.0181
     12 C           6.1616    1.8150    0.9589 C.3     1  UNL1       -0.0504
     13 C           6.1397    0.5192    0.1522 C.3     1  UNL1       -0.0504
     14 C           0.0115    0.4968    0.7385 C.3     1  UNL1       -0.0013
     15 C           2.8671    1.4887   -1.6863 C.3     1  UNL1        0.0492
     16 C           1.6501   -1.1244   -0.1669 C.ar    1  UNL1        0.0478
     17 C          -1.0463   -0.0856   -0.1884 C.3     1  UNL1       -0.0325
     18 C           0.7985   -1.7894   -1.0344 C.ar    1  UNL1       -0.0398
     19 C           1.0295   -3.1412   -1.2641 C.ar    1  UNL1       -0.0586
     20 C           2.8838   -3.0235    0.2205 C.ar    1  UNL1        0.0279
     21 C          -3.3944   -0.5095   -0.4471 C.3     1  UNL1        0.0021
     22 C           2.0898   -3.7774   -0.6284 C.ar    1  UNL1       -0.0436
     23 C          -3.1775   -1.9798   -0.6879 C.ar    1  UNL1        0.0756
     24 C          -4.1121   -2.9615   -0.9346 C.ar    1  UNL1        0.1353
     25 C          -3.5102   -4.2409   -1.1108 C.ar    1  UNL1       -0.0124
     26 C          -2.1388   -4.1883   -0.9925 C.ar    1  UNL1       -0.0203
     27 C          -5.8449   -1.4128   -1.4384 C.3     1  UNL1        0.0788
     28 H          -2.5614    1.0463    0.5623 H       1  UNL1        0.2017
     29 H          -2.3739   -0.4445    1.3035 H       1  UNL1        0.2017
     30 H           2.0834    1.8968    1.4769 H       1  UNL1        0.0302
     31 H           2.6010    0.2383    1.8785 H       1  UNL1        0.0302
     32 H           4.6369    1.6291    2.4657 H       1  UNL1        0.0293
     33 H           4.4653    3.0484    1.5180 H       1  UNL1        0.0293
     34 H           4.4274   -0.5217   -0.6355 H       1  UNL1        0.0293
     35 H           4.6127   -0.7389    1.0527 H       1  UNL1        0.0293
     36 H           1.0594    2.2516   -0.8707 H       1  UNL1        0.0296
     37 H           0.8746    0.8247   -1.9025 H       1  UNL1        0.0296
     38 H           6.8441    1.7313    1.7787 H       1  UNL1        0.0266
     39 H           6.4830    2.6431    0.3623 H       1  UNL1        0.0266
     40 H           6.3834    0.7140   -0.8713 H       1  UNL1        0.0266
     41 H           6.8570   -0.1844    0.5201 H       1  UNL1        0.0266
     42 H          -0.2061    1.5298    0.9131 H       1  UNL1        0.0326
     43 H          -0.0026   -0.0489    1.6588 H       1  UNL1        0.0326
     44 H           3.2463    0.5437   -2.0149 H       1  UNL1        0.0560
     45 H           2.8212    2.1815   -2.5004 H       1  UNL1        0.0560
     46 H          -1.0252    0.4356   -1.1226 H       1  UNL1        0.0814
     47 H          -0.8415   -1.1235   -0.3488 H       1  UNL1        0.0814
     48 H           0.0175   -1.2970   -1.4954 H       1  UNL1        0.0636
     49 H           0.4163   -3.6701   -1.9039 H       1  UNL1        0.0619
     50 H           3.6714   -3.4946    0.6925 H       1  UNL1        0.0829
     51 H          -3.3775    0.0014   -1.3871 H       1  UNL1        0.0873
     52 H          -4.3393   -0.3888    0.0402 H       1  UNL1        0.0873
     53 H           2.2794   -4.7799   -0.7841 H       1  UNL1        0.0633
     54 H          -4.0394   -5.1054   -1.3044 H       1  UNL1        0.0659
     55 H          -1.5199   -5.0087   -1.0870 H       1  UNL1        0.0694
     56 H          -6.9135   -1.3581   -1.4370 H       1  UNL1        0.0660
     57 H          -5.4802   -1.2411   -2.4296 H       1  UNL1        0.0660
     58 H          -5.4488   -0.6691   -0.7788 H       1  UNL1        0.0660
@<TRIPOS>UNITY_ATOM_ATTR
5 1
charge 1
@<TRIPOS>BOND
     1     1    23   ar
     2     1    26   ar
     3     2     6    1
     4     2    15    1
     5     3    24    1
     6     3    27    1
     7     4    16   ar
     8     4    20   ar
     9     5    17    1
    10     5    21    1
    11     5    28    1
    12     5    29    1
    13     6     8    1
    14     6     9    1
    15     6    10    1
    16     7     8    1
    17     7    11    1
    18     7    14    1
    19     7    16    1
    20     8    30    1
    21     8    31    1
    22     9    12    1
    23     9    32    1
    24     9    33    1
    25    10    13    1
    26    10    34    1
    27    10    35    1
    28    11    15    1
    29    11    36    1
    30    11    37    1
    31    12    13    1
    32    12    38    1
    33    12    39    1
    34    13    40    1
    35    13    41    1
    36    14    17    1
    37    14    42    1
    38    14    43    1
    39    15    44    1
    40    15    45    1
    41    16    18   ar
    42    17    46    1
    43    17    47    1
    44    18    19   ar
    45    18    48    1
    46    19    22   ar
    47    19    49    1
    48    20    22   ar
    49    20    50    1
    50    21    23    1
    51    21    51    1
    52    21    52    1
    53    22    53    1
    54    23    24   ar
    55    24    25   ar
    56    25    26   ar
    57    25    54    1
    58    26    55    1
    59    27    56    1
    60    27    57    1
    61    27    58    1
@<TRIPOS>MOLECULE
66555030
 58 61 0 0 0
SMALL
GASTEIGER

@<TRIPOS>ATOM
      1 S          -0.8082    3.4872    4.3373 S.2     1  UNL1       -0.0926
      2 O           3.7389    2.0185   -0.6934 O.3     1  UNL1       -0.3733
      3 O          -0.3163    5.9009    1.3586 O.3     1  UNL1       -0.4941
      4 N           2.4573   -1.4316   -1.2068 N.ar    1  UNL1       -0.2593
      5 N          -1.6674    2.0414    1.6033 N.4     1  UNL1        0.2308
      6 C           3.8512    1.2252    0.4942 C.3     1  UNL1        0.0704
      7 C           1.4231    0.3747    0.1125 C.3     1  UNL1        0.0224
      8 C           2.4643    0.9676    1.1076 C.3     1  UNL1       -0.0124
      9 C           4.7367    2.0144    1.4725 C.3     1  UNL1       -0.0237
     10 C           4.7153   -0.0215    0.2655 C.3     1  UNL1       -0.0237
     11 C           1.4573    1.2951   -1.1383 C.3     1  UNL1       -0.0181
     12 C           6.1616    1.8150    0.9589 C.3     1  UNL1       -0.0504
     13 C           6.1397    0.5192    0.1522 C.3     1  UNL1       -0.0504
     14 C           0.0115    0.4968    0.7385 C.3     1  UNL1       -0.0013
     15 C           2.8671    1.4887   -1.6863 C.3     1  UNL1        0.0492
     16 C           1.6501   -1.1244   -0.1669 C.ar    1  UNL1        0.0478
     17 C          -0.3430    1.9539    0.9995 C.3     1  UNL1       -0.0325
     18 C           1.0329   -2.0661    0.6407 C.ar    1  UNL1       -0.0398
     19 C           1.2590   -3.4097    0.3631 C.ar    1  UNL1       -0.0586
     20 C           2.6534   -2.7477   -1.4463 C.ar    1  UNL1        0.0279
     21 C          -2.0362    3.4286    1.8475 C.3     1  UNL1        0.0021
     22 C           2.0836   -3.7653   -0.6984 C.ar    1  UNL1       -0.0436
     23 C          -1.0590    4.1154    2.7643 C.ar    1  UNL1        0.0756
     24 C          -0.2901    5.2332    2.5253 C.ar    1  UNL1        0.1353
     25 C           0.5159    5.5781    3.6486 C.ar    1  UNL1       -0.0124
     26 C           0.3321    4.7111    4.7030 C.ar    1  UNL1       -0.0203
     27 C          -0.0610    7.3120    1.3934 C.3     1  UNL1        0.0788
     28 H          -1.6646    1.5356    2.4891 H       1  UNL1        0.2017
     29 H          -2.3460    1.6317    0.9615 H       1  UNL1        0.2017
     30 H           2.0834    1.8968    1.4769 H       1  UNL1        0.0302
     31 H           2.6010    0.2383    1.8785 H       1  UNL1        0.0302
     32 H           4.6369    1.6291    2.4657 H       1  UNL1        0.0293
     33 H           4.4653    3.0484    1.5180 H       1  UNL1        0.0293
     34 H           4.4274   -0.5217   -0.6355 H       1  UNL1        0.0293
     35 H           4.6127   -0.7389    1.0527 H       1  UNL1        0.0293
     36 H           1.0594    2.2516   -0.8707 H       1  UNL1        0.0296
     37 H           0.8746    0.8247   -1.9025 H       1  UNL1        0.0296
     38 H           6.8441    1.7313    1.7787 H       1  UNL1        0.0266
     39 H           6.4830    2.6431    0.3623 H       1  UNL1        0.0266
     40 H           6.3834    0.7140   -0.8713 H       1  UNL1        0.0266
     41 H           6.8570   -0.1844    0.5201 H       1  UNL1        0.0266
     42 H          -0.0089   -0.0399    1.6640 H       1  UNL1        0.0326
     43 H          -0.7025    0.0887    0.0539 H       1  UNL1        0.0326
     44 H           3.2463    0.5437   -2.0149 H       1  UNL1        0.0560
     45 H           2.8212    2.1815   -2.5004 H       1  UNL1        0.0560
     46 H           0.3788    2.3813    1.6638 H       1  UNL1        0.0814
     47 H          -0.3422    2.4885    0.0726 H       1  UNL1        0.0814
     48 H           0.4246   -1.7794    1.4235 H       1  UNL1        0.0636
     49 H           0.8166   -4.1400    0.9427 H       1  UNL1        0.0619
     50 H           3.2652   -3.0105   -2.2347 H       1  UNL1        0.0829
     51 H          -3.0077    3.4548    2.2951 H       1  UNL1        0.0873
     52 H          -2.0299    3.9438    0.9098 H       1  UNL1        0.0873
     53 H           2.2654   -4.7563   -0.9222 H       1  UNL1        0.0633
     54 H           1.1615    6.3829    3.6697 H       1  UNL1        0.0659
     55 H           0.8237    4.7899    5.6070 H       1  UNL1        0.0694
     56 H          -0.1138    7.7086    0.4010 H       1  UNL1        0.0660
     57 H           0.9144    7.4881    1.7965 H       1  UNL1        0.0660
     58 H          -0.7931    7.7919    2.0087 H       1  UNL1        0.0660
@<TRIPOS>UNITY_ATOM_ATTR
5 1
charge 1
@<TRIPOS>BOND
     1     1    23   ar
     2     1    26   ar
     3     2     6    1
     4     2    15    1
     5     3    24    1
     6     3    27    1
     7     4    16   ar
     8     4    20   ar
     9     5    17    1
    10     5    21    1
    11     5    28    1
    12     5    29    1
    13     6     8    1
    14     6     9    1
    15     6    10    1
    16     7     8    1
    17     7    11    1
    18     7    14    1
    19     7    16    1
    20     8    30    1
    21     8    31    1
    22     9    12    1
    23     9    32    1
    24     9    33    1
    25    10    13    1
    26    10    34    1
    27    10    35    1
    28    11    15    1
    29    11    36    1
    30    11    37    1
    31    12    13    1
    32    12    38    1
    33    12    39    1
    34    13    40    1
    35    13    41    1
    36    14    17    1
    37    14    42    1
    38    14    43    1
    39    15    44    1
    40    15    45    1
    41    16    18   ar
    42    17    46    1
    43    17    47    1
    44    18    19   ar
    45    18    48    1
    46    19    22   ar
    47    19    49    1
    48    20    22   ar
    49    20    50    1
    50    21    23    1
    51    21    51    1
    52    21    52    1
    53    22    53    1
    54    23    24   ar
    55    24    25   ar
    56    25    26   ar
    57    25    54    1
    58    26    55    1
    59    27    56    1
    60    27    57    1
    61    27    58    1
@<TRIPOS>MOLECULE
66555030
 58 61 0 0 0
SMALL
GASTEIGER

@<TRIPOS>ATOM
      1 S          -0.6745   -5.0357    3.3175 S.2     1  UNL1       -0.0926
      2 O           3.7389    2.0185   -0.6934 O.3     1  UNL1       -0.3733
      3 O           2.7330   -3.6925    2.0824 O.3     1  UNL1       -0.4941
      4 N           0.5529   -1.8606   -0.4523 N.ar    1  UNL1       -0.2593
      5 N           0.2477   -1.6591    1.8559 N.4     1  UNL1        0.2308
      6 C           3.8512    1.2252    0.4942 C.3     1  UNL1        0.0704
      7 C           1.4231    0.3747    0.1125 C.3     1  UNL1        0.0224
      8 C           2.4643    0.9676    1.1076 C.3     1  UNL1       -0.0124
      9 C           4.7367    2.0144    1.4725 C.3     1  UNL1       -0.0237
     10 C           4.7153   -0.0215    0.2655 C.3     1  UNL1       -0.0237
     11 C           1.4573    1.2951   -1.1383 C.3     1  UNL1       -0.0181
     12 C           6.1616    1.8150    0.9589 C.3     1  UNL1       -0.0504
     13 C           6.1397    0.5192    0.1522 C.3     1  UNL1       -0.0504
     14 C           0.0115    0.4968    0.7385 C.3     1  UNL1       -0.0013
     15 C           2.8671    1.4887   -1.6863 C.3     1  UNL1        0.0492
     16 C           1.6501   -1.1244   -0.1669 C.ar    1  UNL1        0.0478
     17 C          -0.0619   -0.2494    2.0632 C.3     1  UNL1       -0.0325
     18 C           2.9364   -1.6370   -0.1153 C.ar    1  UNL1       -0.0398
     19 C           3.1075   -2.9925   -0.3735 C.ar    1  UNL1       -0.0586
     20 C           0.7583   -3.1743   -0.6974 C.ar    1  UNL1        0.0279
     21 C           0.1675   -2.3980    3.1079 C.3     1  UNL1        0.0021
     22 C           2.0028   -3.7827   -0.6710 C.ar    1  UNL1       -0.0436
     23 C           0.5003   -3.8545    2.9216 C.ar    1  UNL1        0.0756
     24 C           1.6667   -4.4211    2.4565 C.ar    1  UNL1        0.1353
     25 C           1.5946   -5.8437    2.4244 C.ar    1  UNL1       -0.0124
     26 C           0.3762   -6.3102    2.8664 C.ar    1  UNL1       -0.0203
     27 C           4.0318   -4.2765    2.2551 C.3     1  UNL1        0.0788
     28 H           1.1919   -1.7417    1.4791 H       1  UNL1        0.2017
     29 H          -0.4317   -2.0495    1.2028 H       1  UNL1        0.2017
     30 H           2.0834    1.8968    1.4769 H       1  UNL1        0.0302
     31 H           2.6010    0.2383    1.8785 H       1  UNL1        0.0302
     32 H           4.6369    1.6291    2.4657 H       1  UNL1        0.0293
     33 H           4.4653    3.0484    1.5180 H       1  UNL1        0.0293
     34 H           4.4274   -0.5217   -0.6355 H       1  UNL1        0.0293
     35 H           4.6127   -0.7389    1.0527 H       1  UNL1        0.0293
     36 H           1.0594    2.2516   -0.8707 H       1  UNL1        0.0296
     37 H           0.8746    0.8247   -1.9025 H       1  UNL1        0.0296
     38 H           6.8441    1.7313    1.7787 H       1  UNL1        0.0266
     39 H           6.4830    2.6431    0.3623 H       1  UNL1        0.0266
     40 H           6.3834    0.7140   -0.8713 H       1  UNL1        0.0266
     41 H           6.8570   -0.1844    0.5201 H       1  UNL1        0.0266
     42 H          -0.7081    0.0833    0.0632 H       1  UNL1        0.0326
     43 H          -0.1948    1.5314    0.9172 H       1  UNL1        0.0326
     44 H           3.2463    0.5437   -2.0149 H       1  UNL1        0.0560
     45 H           2.8212    2.1815   -2.5004 H       1  UNL1        0.0560
     46 H           0.6443    0.1721    2.7476 H       1  UNL1        0.0814
     47 H          -1.0503   -0.1608    2.4635 H       1  UNL1        0.0814
     48 H           3.7420   -1.0318    0.1077 H       1  UNL1        0.0636
     49 H           4.0506   -3.4104   -0.3443 H       1  UNL1        0.0619
     50 H          -0.0624   -3.7598   -0.9176 H       1  UNL1        0.0829
     51 H          -0.8269   -2.3168    3.4946 H       1  UNL1        0.0873
     52 H           0.8804   -1.9788    3.7869 H       1  UNL1        0.0873
     53 H           2.1066   -4.7908   -0.8661 H       1  UNL1        0.0633
     54 H           2.3647   -6.4531    2.1072 H       1  UNL1        0.0659
     55 H           0.1261   -7.3100    2.9193 H       1  UNL1        0.0694
     56 H           4.7795   -3.5894    1.9176 H       1  UNL1        0.0660
     57 H           4.0949   -5.1803    1.6860 H       1  UNL1        0.0660
     58 H           4.1896   -4.4952    3.2906 H       1  UNL1        0.0660
@<TRIPOS>UNITY_ATOM_ATTR
5 1
charge 1
@<TRIPOS>BOND
     1     1    23   ar
     2     1    26   ar
     3     2     6    1
     4     2    15    1
     5     3    24    1
     6     3    27    1
     7     4    16   ar
     8     4    20   ar
     9     5    17    1
    10     5    21    1
    11     5    28    1
    12     5    29    1
    13     6     8    1
    14     6     9    1
    15     6    10    1
    16     7     8    1
    17     7    11    1
    18     7    14    1
    19     7    16    1
    20     8    30    1
    21     8    31    1
    22     9    12    1
    23     9    32    1
    24     9    33    1
    25    10    13    1
    26    10    34    1
    27    10    35    1
    28    11    15    1
    29    11    36    1
    30    11    37    1
    31    12    13    1
    32    12    38    1
    33    12    39    1
    34    13    40    1
    35    13    41    1
    36    14    17    1
    37    14    42    1
    38    14    43    1
    39    15    44    1
    40    15    45    1
    41    16    18   ar
    42    17    46    1
    43    17    47    1
    44    18    19   ar
    45    18    48    1
    46    19    22   ar
    47    19    49    1
    48    20    22   ar
    49    20    50    1
    50    21    23    1
    51    21    51    1
    52    21    52    1
    53    22    53    1
    54    23    24   ar
    55    24    25   ar
    56    25    26   ar
    57    25    54    1
    58    26    55    1
    59    27    56    1
    60    27    57    1
    61    27    58    1
@<TRIPOS>MOLECULE
66555030
 58 61 0 0 0
SMALL
GASTEIGER

@<TRIPOS>ATOM
      1 S           0.5072    0.9145    4.4998 S.2     1  UNL1       -0.0926
      2 O           3.7389    2.0185   -0.6934 O.3     1  UNL1       -0.3733
      3 O          -1.5461    4.1552    4.0282 O.3     1  UNL1       -0.4941
      4 N           0.7973   -1.7152   -1.0334 N.ar    1  UNL1       -0.2593
      5 N          -1.6674    2.0414    1.6033 N.4     1  UNL1        0.2308
      6 C           3.8512    1.2252    0.4942 C.3     1  UNL1        0.0704
      7 C           1.4231    0.3747    0.1125 C.3     1  UNL1        0.0224
      8 C           2.4643    0.9676    1.1076 C.3     1  UNL1       -0.0124
      9 C           4.7367    2.0144    1.4725 C.3     1  UNL1       -0.0237
     10 C           4.7153   -0.0215    0.2655 C.3     1  UNL1       -0.0237
     11 C           1.4573    1.2951   -1.1383 C.3     1  UNL1       -0.0181
     12 C           6.1616    1.8150    0.9589 C.3     1  UNL1       -0.0504
     13 C           6.1397    0.5192    0.1522 C.3     1  UNL1       -0.0504
     14 C           0.0115    0.4968    0.7385 C.3     1  UNL1       -0.0013
     15 C           2.8671    1.4887   -1.6863 C.3     1  UNL1        0.0492
     16 C           1.6501   -1.1244   -0.1669 C.ar    1  UNL1        0.0478
     17 C          -0.3430    1.9539    0.9995 C.3     1  UNL1       -0.0325
     18 C           2.6925   -1.7823    0.4660 C.ar    1  UNL1       -0.0398
     19 C           2.8712   -3.1336    0.1916 C.ar    1  UNL1       -0.0586
     20 C           1.0020   -3.0297   -1.2753 C.ar    1  UNL1        0.0279
     21 C          -1.7056    1.3346    2.8758 C.3     1  UNL1        0.0021
     22 C           2.0142   -3.7766   -0.6946 C.ar    1  UNL1       -0.0436
     23 C          -0.7319    1.9131    3.8678 C.ar    1  UNL1        0.0756
     24 C          -0.6758    3.1918    4.3775 C.ar    1  UNL1        0.1353
     25 C           0.3991    3.3537    5.2987 C.ar    1  UNL1       -0.0124
     26 C           1.1231    2.1928    5.4583 C.ar    1  UNL1       -0.0203
     27 C          -2.8706    3.7515    3.6534 C.3     1  UNL1        0.0788
     28 H          -2.3511    1.6266    0.9702 H       1  UNL1        0.2017
     29 H          -1.8858    3.0238    1.7693 H       1  UNL1        0.2017
     30 H           2.0834    1.8968    1.4769 H       1  UNL1        0.0302
     31 H           2.6010    0.2383    1.8785 H       1  UNL1        0.0302
     32 H           4.6369    1.6291    2.4657 H       1  UNL1        0.0293
     33 H           4.4653    3.0484    1.5180 H       1  UNL1        0.0293
     34 H           4.4274   -0.5217   -0.6355 H       1  UNL1        0.0293
     35 H           4.6127   -0.7389    1.0527 H       1  UNL1        0.0293
     36 H           1.0594    2.2516   -0.8707 H       1  UNL1        0.0296
     37 H           0.8746    0.8247   -1.9025 H       1  UNL1        0.0296
     38 H           6.8441    1.7313    1.7787 H       1  UNL1        0.0266
     39 H           6.4830    2.6431    0.3623 H       1  UNL1        0.0266
     40 H           6.3834    0.7140   -0.8713 H       1  UNL1        0.0266
     41 H           6.8570   -0.1844    0.5201 H       1  UNL1        0.0266
     42 H          -0.0089   -0.0399    1.6640 H       1  UNL1        0.0326
     43 H          -0.7025    0.0887    0.0539 H       1  UNL1        0.0326
     44 H           3.2463    0.5437   -2.0149 H       1  UNL1        0.0560
     45 H           2.8212    2.1815   -2.5004 H       1  UNL1        0.0560
     46 H           0.3788    2.3813    1.6638 H       1  UNL1        0.0814
     47 H          -0.3422    2.4885    0.0726 H       1  UNL1        0.0814
     48 H           3.3166   -1.2850    1.1204 H       1  UNL1        0.0636
     49 H           3.6368   -3.6573    0.6439 H       1  UNL1        0.0619
     50 H           0.3649   -3.5059   -1.9329 H       1  UNL1        0.0829
     51 H          -1.4595    0.3069    2.7083 H       1  UNL1        0.0873
     52 H          -2.6908    1.4338    3.2811 H       1  UNL1        0.0873
     53 H           2.1285   -4.7787   -0.9131 H       1  UNL1        0.0633
     54 H           0.6103    4.2369    5.7889 H       1  UNL1        0.0659
     55 H           1.9405    2.1040    6.0819 H       1  UNL1        0.0694
     56 H          -3.4493    4.6159    3.4023 H       1  UNL1        0.0660
     57 H          -3.3320    3.2386    4.4713 H       1  UNL1        0.0660
     58 H          -2.8185    3.0990    2.8069 H       1  UNL1        0.0660
@<TRIPOS>UNITY_ATOM_ATTR
5 1
charge 1
@<TRIPOS>BOND
     1     1    23   ar
     2     1    26   ar
     3     2     6    1
     4     2    15    1
     5     3    24    1
     6     3    27    1
     7     4    16   ar
     8     4    20   ar
     9     5    17    1
    10     5    21    1
    11     5    28    1
    12     5    29    1
    13     6     8    1
    14     6     9    1
    15     6    10    1
    16     7     8    1
    17     7    11    1
    18     7    14    1
    19     7    16    1
    20     8    30    1
    21     8    31    1
    22     9    12    1
    23     9    32    1
    24     9    33    1
    25    10    13    1
    26    10    34    1
    27    10    35    1
    28    11    15    1
    29    11    36    1
    30    11    37    1
    31    12    13    1
    32    12    38    1
    33    12    39    1
    34    13    40    1
    35    13    41    1
    36    14    17    1
    37    14    42    1
    38    14    43    1
    39    15    44    1
    40    15    45    1
    41    16    18   ar
    42    17    46    1
    43    17    47    1
    44    18    19   ar
    45    18    48    1
    46    19    22   ar
    47    19    49    1
    48    20    22   ar
    49    20    50    1
    50    21    23    1
    51    21    51    1
    52    21    52    1
    53    22    53    1
    54    23    24   ar
    55    24    25   ar
    56    25    26   ar
    57    25    54    1
    58    26    55    1
    59    27    56    1
    60    27    57    1
    61    27    58    1
@<TRIPOS>MOLECULE
66555030
 58 61 0 0 0
SMALL
GASTEIGER

@<TRIPOS>ATOM
      1 S           2.1248   -4.3675    3.0939 S.2     1  UNL1       -0.0926
      2 O           3.7389    2.0185   -0.6934 O.3     1  UNL1       -0.3733
      3 O          -1.6653   -4.7424    2.4347 O.3     1  UNL1       -0.4941
      4 N           0.7973   -1.7152   -1.0334 N.ar    1  UNL1       -0.2593
      5 N           0.2477   -1.6591    1.8559 N.4     1  UNL1        0.2308
      6 C           3.8512    1.2252    0.4942 C.3     1  UNL1        0.0704
      7 C           1.4231    0.3747    0.1125 C.3     1  UNL1        0.0224
      8 C           2.4643    0.9676    1.1076 C.3     1  UNL1       -0.0124
      9 C           4.7367    2.0144    1.4725 C.3     1  UNL1       -0.0237
     10 C           4.7153   -0.0215    0.2655 C.3     1  UNL1       -0.0237
     11 C           1.4573    1.2951   -1.1383 C.3     1  UNL1       -0.0181
     12 C           6.1616    1.8150    0.9589 C.3     1  UNL1       -0.0504
     13 C           6.1397    0.5192    0.1522 C.3     1  UNL1       -0.0504
     14 C           0.0115    0.4968    0.7385 C.3     1  UNL1       -0.0013
     15 C           2.8671    1.4887   -1.6863 C.3     1  UNL1        0.0492
     16 C           1.6501   -1.1244   -0.1669 C.ar    1  UNL1        0.0478
     17 C          -0.0619   -0.2494    2.0632 C.3     1  UNL1       -0.0325
     18 C           2.6925   -1.7823    0.4660 C.ar    1  UNL1       -0.0398
     19 C           2.8712   -3.1336    0.1916 C.ar    1  UNL1       -0.0586
     20 C           1.0020   -3.0297   -1.2753 C.ar    1  UNL1        0.0279
     21 C           0.1675   -2.3980    3.1079 C.3     1  UNL1        0.0021
     22 C           2.0142   -3.7766   -0.6946 C.ar    1  UNL1       -0.0436
     23 C           0.5003   -3.8545    2.9216 C.ar    1  UNL1        0.0756
     24 C          -0.3427   -4.9007    2.6170 C.ar    1  UNL1        0.1353
     25 C           0.3546   -6.1398    2.5244 C.ar    1  UNL1       -0.0124
     26 C           1.7035   -5.9935    2.7613 C.ar    1  UNL1       -0.0203
     27 C          -2.3232   -5.6348    1.5245 C.3     1  UNL1        0.0788
     28 H           1.1919   -1.7417    1.4791 H       1  UNL1        0.2017
     29 H          -0.4317   -2.0495    1.2028 H       1  UNL1        0.2017
     30 H           2.0834    1.8968    1.4769 H       1  UNL1        0.0302
     31 H           2.6010    0.2383    1.8785 H       1  UNL1        0.0302
     32 H           4.6369    1.6291    2.4657 H       1  UNL1        0.0293
     33 H           4.4653    3.0484    1.5180 H       1  UNL1        0.0293
     34 H           4.4274   -0.5217   -0.6355 H       1  UNL1        0.0293
     35 H           4.6127   -0.7389    1.0527 H       1  UNL1        0.0293
     36 H           1.0594    2.2516   -0.8707 H       1  UNL1        0.0296
     37 H           0.8746    0.8247   -1.9025 H       1  UNL1        0.0296
     38 H           6.8441    1.7313    1.7787 H       1  UNL1        0.0266
     39 H           6.4830    2.6431    0.3623 H       1  UNL1        0.0266
     40 H           6.3834    0.7140   -0.8713 H       1  UNL1        0.0266
     41 H           6.8570   -0.1844    0.5201 H       1  UNL1        0.0266
     42 H          -0.7081    0.0833    0.0632 H       1  UNL1        0.0326
     43 H          -0.1948    1.5314    0.9172 H       1  UNL1        0.0326
     44 H           3.2463    0.5437   -2.0149 H       1  UNL1        0.0560
     45 H           2.8212    2.1815   -2.5004 H       1  UNL1        0.0560
     46 H           0.6443    0.1721    2.7476 H       1  UNL1        0.0814
     47 H          -1.0503   -0.1608    2.4635 H       1  UNL1        0.0814
     48 H           3.3166   -1.2850    1.1204 H       1  UNL1        0.0636
     49 H           3.6368   -3.6573    0.6439 H       1  UNL1        0.0619
     50 H           0.3649   -3.5059   -1.9329 H       1  UNL1        0.0829
     51 H          -0.8269   -2.3168    3.4946 H       1  UNL1        0.0873
     52 H           0.8804   -1.9788    3.7869 H       1  UNL1        0.0873
     53 H           2.1285   -4.7787   -0.9131 H       1  UNL1        0.0633
     54 H          -0.0980   -7.0411    2.3055 H       1  UNL1        0.0659
     55 H           2.3805   -6.7721    2.7408 H       1  UNL1        0.0694
     56 H          -3.3647   -5.3939    1.4790 H       1  UNL1        0.0660
     57 H          -2.2046   -6.6424    1.8647 H       1  UNL1        0.0660
     58 H          -1.8908   -5.5339    0.5509 H       1  UNL1        0.0660
@<TRIPOS>UNITY_ATOM_ATTR
5 1
charge 1
@<TRIPOS>BOND
     1     1    23   ar
     2     1    26   ar
     3     2     6    1
     4     2    15    1
     5     3    24    1
     6     3    27    1
     7     4    16   ar
     8     4    20   ar
     9     5    17    1
    10     5    21    1
    11     5    28    1
    12     5    29    1
    13     6     8    1
    14     6     9    1
    15     6    10    1
    16     7     8    1
    17     7    11    1
    18     7    14    1
    19     7    16    1
    20     8    30    1
    21     8    31    1
    22     9    12    1
    23     9    32    1
    24     9    33    1
    25    10    13    1
    26    10    34    1
    27    10    35    1
    28    11    15    1
    29    11    36    1
    30    11    37    1
    31    12    13    1
    32    12    38    1
    33    12    39    1
    34    13    40    1
    35    13    41    1
    36    14    17    1
    37    14    42    1
    38    14    43    1
    39    15    44    1
    40    15    45    1
    41    16    18   ar
    42    17    46    1
    43    17    47    1
    44    18    19   ar
    45    18    48    1
    46    19    22   ar
    47    19    49    1
    48    20    22   ar
    49    20    50    1
    50    21    23    1
    51    21    51    1
    52    21    52    1
    53    22    53    1
    54    23    24   ar
    55    24    25   ar
    56    25    26   ar
    57    25    54    1
    58    26    55    1
    59    27    56    1
    60    27    57    1
    61    27    58    1
@<TRIPOS>MOLECULE
66555030
 58 61 0 0 0
SMALL
GASTEIGER

@<TRIPOS>ATOM
      1 S          -3.8962   -3.1140    0.3747 S.2     1  UNL1       -0.0926
      2 O           3.7389    2.0185   -0.6934 O.3     1  UNL1       -0.3733
      3 O          -1.7964   -1.9078   -2.6380 O.3     1  UNL1       -0.4941
      4 N           1.8907   -1.4719   -1.4509 N.ar    1  UNL1       -0.2593
      5 N          -2.3661    0.0561    0.4148 N.4     1  UNL1        0.2308
      6 C           3.8512    1.2252    0.4942 C.3     1  UNL1        0.0704
      7 C           1.4231    0.3747    0.1125 C.3     1  UNL1        0.0224
      8 C           2.4643    0.9676    1.1076 C.3     1  UNL1       -0.0124
      9 C           4.7367    2.0144    1.4725 C.3     1  UNL1       -0.0237
     10 C           4.7153   -0.0215    0.2655 C.3     1  UNL1       -0.0237
     11 C           1.4573    1.2951   -1.1383 C.3     1  UNL1       -0.0181
     12 C           6.1616    1.8150    0.9589 C.3     1  UNL1       -0.0504
     13 C           6.1397    0.5192    0.1522 C.3     1  UNL1       -0.0504
     14 C           0.0115    0.4968    0.7385 C.3     1  UNL1       -0.0013
     15 C           2.8671    1.4887   -1.6863 C.3     1  UNL1        0.0492
     16 C           1.6501   -1.1244   -0.1669 C.ar    1  UNL1        0.0478
     17 C          -1.0463   -0.0856   -0.1884 C.3     1  UNL1       -0.0325
     18 C           1.5996   -2.0257    0.8843 C.ar    1  UNL1       -0.0398
     19 C           1.8099   -3.3703    0.5992 C.ar    1  UNL1       -0.0586
     20 C           2.0900   -2.7877   -1.6896 C.ar    1  UNL1        0.0279
     21 C          -3.3944   -0.5095   -0.4471 C.3     1  UNL1        0.0021
     22 C           2.0605   -3.7667   -0.7097 C.ar    1  UNL1       -0.0436
     23 C          -3.1775   -1.9798   -0.6879 C.ar    1  UNL1        0.0756
     24 C          -2.4510   -2.5936   -1.6847 C.ar    1  UNL1        0.1353
     25 C          -2.4854   -4.0137   -1.5745 C.ar    1  UNL1       -0.0124
     26 C          -3.2364   -4.4312   -0.4979 C.ar    1  UNL1       -0.0203
     27 C          -1.0857   -2.6611   -3.6305 C.3     1  UNL1        0.0788
     28 H          -2.5614    1.0463    0.5623 H       1  UNL1        0.2017
     29 H          -2.3739   -0.4445    1.3035 H       1  UNL1        0.2017
     30 H           2.0834    1.8968    1.4769 H       1  UNL1        0.0302
     31 H           2.6010    0.2383    1.8785 H       1  UNL1        0.0302
     32 H           4.6369    1.6291    2.4657 H       1  UNL1        0.0293
     33 H           4.4653    3.0484    1.5180 H       1  UNL1        0.0293
     34 H           4.4274   -0.5217   -0.6355 H       1  UNL1        0.0293
     35 H           4.6127   -0.7389    1.0527 H       1  UNL1        0.0293
     36 H           1.0594    2.2516   -0.8707 H       1  UNL1        0.0296
     37 H           0.8746    0.8247   -1.9025 H       1  UNL1        0.0296
     38 H           6.8441    1.7313    1.7787 H       1  UNL1        0.0266
     39 H           6.4830    2.6431    0.3623 H       1  UNL1        0.0266
     40 H           6.3834    0.7140   -0.8713 H       1  UNL1        0.0266
     41 H           6.8570   -0.1844    0.5201 H       1  UNL1        0.0266
     42 H          -0.2061    1.5298    0.9131 H       1  UNL1        0.0326
     43 H          -0.0026   -0.0489    1.6588 H       1  UNL1        0.0326
     44 H           3.2463    0.5437   -2.0149 H       1  UNL1        0.0560
     45 H           2.8212    2.1815   -2.5004 H       1  UNL1        0.0560
     46 H          -1.0252    0.4356   -1.1226 H       1  UNL1        0.0814
     47 H          -0.8415   -1.1235   -0.3488 H       1  UNL1        0.0814
     48 H           1.4119   -1.7091    1.8484 H       1  UNL1        0.0636
     49 H           1.7800   -4.0712    1.3561 H       1  UNL1        0.0619
     50 H           2.2755   -3.0808   -2.6615 H       1  UNL1        0.0829
     51 H          -3.3775    0.0014   -1.3871 H       1  UNL1        0.0873
     52 H          -4.3393   -0.3888    0.0402 H       1  UNL1        0.0873
     53 H           2.2196   -4.7591   -0.9440 H       1  UNL1        0.0633
     54 H          -2.0042   -4.6544   -2.2249 H       1  UNL1        0.0659
     55 H          -3.3839   -5.4213   -0.2468 H       1  UNL1        0.0694
     56 H          -0.6163   -1.9901   -4.3192 H       1  UNL1        0.0660
     57 H          -1.7706   -3.2919   -4.1577 H       1  UNL1        0.0660
     58 H          -0.3400   -3.2634   -3.1549 H       1  UNL1        0.0660
@<TRIPOS>UNITY_ATOM_ATTR
5 1
charge 1
@<TRIPOS>BOND
     1     1    23   ar
     2     1    26   ar
     3     2     6    1
     4     2    15    1
     5     3    24    1
     6     3    27    1
     7     4    16   ar
     8     4    20   ar
     9     5    17    1
    10     5    21    1
    11     5    28    1
    12     5    29    1
    13     6     8    1
    14     6     9    1
    15     6    10    1
    16     7     8    1
    17     7    11    1
    18     7    14    1
    19     7    16    1
    20     8    30    1
    21     8    31    1
    22     9    12    1
    23     9    32    1
    24     9    33    1
    25    10    13    1
    26    10    34    1
    27    10    35    1
    28    11    15    1
    29    11    36    1
    30    11    37    1
    31    12    13    1
    32    12    38    1
    33    12    39    1
    34    13    40    1
    35    13    41    1
    36    14    17    1
    37    14    42    1
    38    14    43    1
    39    15    44    1
    40    15    45    1
    41    16    18   ar
    42    17    46    1
    43    17    47    1
    44    18    19   ar
    45    18    48    1
    46    19    22   ar
    47    19    49    1
    48    20    22   ar
    49    20    50    1
    50    21    23    1
    51    21    51    1
    52    21    52    1
    53    22    53    1
    54    23    24   ar
    55    24    25   ar
    56    25    26   ar
    57    25    54    1
    58    26    55    1
    59    27    56    1
    60    27    57    1
    61    27    58    1
@<TRIPOS>MOLECULE
66555030
 58 61 0 0 0
SMALL
GASTEIGER

@<TRIPOS>ATOM
      1 S          -4.1552   -1.3054    3.7882 S.2     1  UNL1       -0.0926
      2 O           3.7389    2.0185   -0.6934 O.3     1  UNL1       -0.3733
      3 O          -4.8361    0.6778    0.5411 O.3     1  UNL1       -0.4941
      4 N           1.2845   -1.5755   -1.3876 N.ar    1  UNL1       -0.2593
      5 N          -1.4031   -0.1338    2.6236 N.4     1  UNL1        0.2308
      6 C           3.8512    1.2252    0.4942 C.3     1  UNL1        0.0704
      7 C           1.4231    0.3747    0.1125 C.3     1  UNL1        0.0224
      8 C           2.4643    0.9676    1.1076 C.3     1  UNL1       -0.0124
      9 C           4.7367    2.0144    1.4725 C.3     1  UNL1       -0.0237
     10 C           4.7153   -0.0215    0.2655 C.3     1  UNL1       -0.0237
     11 C           1.4573    1.2951   -1.1383 C.3     1  UNL1       -0.0181
     12 C           6.1616    1.8150    0.9589 C.3     1  UNL1       -0.0504
     13 C           6.1397    0.5192    0.1522 C.3     1  UNL1       -0.0504
     14 C           0.0115    0.4968    0.7385 C.3     1  UNL1       -0.0013
     15 C           2.8671    1.4887   -1.6863 C.3     1  UNL1        0.0492
     16 C           1.6501   -1.1244   -0.1669 C.ar    1  UNL1        0.0478
     17 C          -0.0619   -0.2494    2.0632 C.3     1  UNL1       -0.0325
     18 C           2.2057   -1.9221    0.8205 C.ar    1  UNL1       -0.0398
     19 C           2.3986   -3.2695    0.5366 C.ar    1  UNL1       -0.0586
     20 C           1.4869   -2.8907   -1.6271 C.ar    1  UNL1        0.0279
     21 C          -2.3926   -0.7130    1.7261 C.3     1  UNL1        0.0021
     22 C           2.0352   -3.7708   -0.7083 C.ar    1  UNL1       -0.0436
     23 C          -3.7886   -0.5899    2.2763 C.ar    1  UNL1        0.0756
     24 C          -4.8812    0.0432    1.7255 C.ar    1  UNL1        0.1353
     25 C          -6.0342   -0.0603    2.5561 C.ar    1  UNL1       -0.0124
     26 C          -5.7793   -0.7686    3.7096 C.ar    1  UNL1       -0.0203
     27 C          -3.5861    0.6855   -0.1626 C.3     1  UNL1        0.0788
     28 H          -1.6204    0.8521    2.7690 H       1  UNL1        0.2017
     29 H          -1.4310   -0.6390    3.5093 H       1  UNL1        0.2017
     30 H           2.0834    1.8968    1.4769 H       1  UNL1        0.0302
     31 H           2.6010    0.2383    1.8785 H       1  UNL1        0.0302
     32 H           4.6369    1.6291    2.4657 H       1  UNL1        0.0293
     33 H           4.4653    3.0484    1.5180 H       1  UNL1        0.0293
     34 H           4.4274   -0.5217   -0.6355 H       1  UNL1        0.0293
     35 H           4.6127   -0.7389    1.0527 H       1  UNL1        0.0293
     36 H           1.0594    2.2516   -0.8707 H       1  UNL1        0.0296
     37 H           0.8746    0.8247   -1.9025 H       1  UNL1        0.0296
     38 H           6.8441    1.7313    1.7787 H       1  UNL1        0.0266
     39 H           6.4830    2.6431    0.3623 H       1  UNL1        0.0266
     40 H           6.3834    0.7140   -0.8713 H       1  UNL1        0.0266
     41 H           6.8570   -0.1844    0.5201 H       1  UNL1        0.0266
     42 H          -0.7081    0.0833    0.0632 H       1  UNL1        0.0326
     43 H          -0.1948    1.5314    0.9172 H       1  UNL1        0.0326
     44 H           3.2463    0.5437   -2.0149 H       1  UNL1        0.0560
     45 H           2.8212    2.1815   -2.5004 H       1  UNL1        0.0560
     46 H           0.1675   -1.2821    1.9020 H       1  UNL1        0.0814
     47 H           0.6435    0.1751    2.7466 H       1  UNL1        0.0814
     48 H           2.4681   -1.5285    1.7377 H       1  UNL1        0.0636
     49 H           2.8100   -3.8949    1.2470 H       1  UNL1        0.0619
     50 H           1.2162   -3.2617   -2.5513 H       1  UNL1        0.0829
     51 H          -2.1666   -1.7492    1.5841 H       1  UNL1        0.0873
     52 H          -2.3528   -0.1795    0.7994 H       1  UNL1        0.0873
     53 H           2.1696   -4.7673   -0.9406 H       1  UNL1        0.0633
     54 H          -6.9527    0.3476    2.3210 H       1  UNL1        0.0659
     55 H          -6.4840   -0.9539    4.4403 H       1  UNL1        0.0694
     56 H          -3.6975    1.2222   -1.0817 H       1  UNL1        0.0660
     57 H          -3.2879   -0.3207   -0.3710 H       1  UNL1        0.0660
     58 H          -2.8405    1.1610    0.4399 H       1  UNL1        0.0660
@<TRIPOS>UNITY_ATOM_ATTR
5 1
charge 1
@<TRIPOS>BOND
     1     1    23   ar
     2     1    26   ar
     3     2     6    1
     4     2    15    1
     5     3    24    1
     6     3    27    1
     7     4    16   ar
     8     4    20   ar
     9     5    17    1
    10     5    21    1
    11     5    28    1
    12     5    29    1
    13     6     8    1
    14     6     9    1
    15     6    10    1
    16     7     8    1
    17     7    11    1
    18     7    14    1
    19     7    16    1
    20     8    30    1
    21     8    31    1
    22     9    12    1
    23     9    32    1
    24     9    33    1
    25    10    13    1
    26    10    34    1
    27    10    35    1
    28    11    15    1
    29    11    36    1
    30    11    37    1
    31    12    13    1
    32    12    38    1
    33    12    39    1
    34    13    40    1
    35    13    41    1
    36    14    17    1
    37    14    42    1
    38    14    43    1
    39    15    44    1
    40    15    45    1
    41    16    18   ar
    42    17    46    1
    43    17    47    1
    44    18    19   ar
    45    18    48    1
    46    19    22   ar
    47    19    49    1
    48    20    22   ar
    49    20    50    1
    50    21    23    1
    51    21    51    1
    52    21    52    1
    53    22    53    1
    54    23    24   ar
    55    24    25   ar
    56    25    26   ar
    57    25    54    1
    58    26    55    1
    59    27    56    1
    60    27    57    1
    61    27    58    1
@<TRIPOS>MOLECULE
66555030
 58 61 0 0 0
SMALL
GASTEIGER

@<TRIPOS>ATOM
      1 S           0.1465   -2.9359    4.6571 S.2     1  UNL1       -0.0926
      2 O           3.7389    2.0185   -0.6934 O.3     1  UNL1       -0.3733
      3 O          -2.8535   -2.9796    2.2203 O.3     1  UNL1       -0.4941
      4 N           1.2845   -1.5755   -1.3876 N.ar    1  UNL1       -0.2593
      5 N          -1.4031   -0.1338    2.6236 N.4     1  UNL1        0.2308
      6 C           3.8512    1.2252    0.4942 C.3     1  UNL1        0.0704
      7 C           1.4231    0.3747    0.1125 C.3     1  UNL1        0.0224
      8 C           2.4643    0.9676    1.1076 C.3     1  UNL1       -0.0124
      9 C           4.7367    2.0144    1.4725 C.3     1  UNL1       -0.0237
     10 C           4.7153   -0.0215    0.2655 C.3     1  UNL1       -0.0237
     11 C           1.4573    1.2951   -1.1383 C.3     1  UNL1       -0.0181
     12 C           6.1616    1.8150    0.9589 C.3     1  UNL1       -0.0504
     13 C           6.1397    0.5192    0.1522 C.3     1  UNL1       -0.0504
     14 C           0.0115    0.4968    0.7385 C.3     1  UNL1       -0.0013
     15 C           2.8671    1.4887   -1.6863 C.3     1  UNL1        0.0492
     16 C           1.6501   -1.1244   -0.1669 C.ar    1  UNL1        0.0478
     17 C          -0.0619   -0.2494    2.0632 C.3     1  UNL1       -0.0325
     18 C           2.2057   -1.9221    0.8205 C.ar    1  UNL1       -0.0398
     19 C           2.3986   -3.2695    0.5366 C.ar    1  UNL1       -0.0586
     20 C           1.4869   -2.8907   -1.6271 C.ar    1  UNL1        0.0279
     21 C          -1.4936   -0.8268    3.9010 C.3     1  UNL1        0.0021
     22 C           2.0352   -3.7708   -0.7083 C.ar    1  UNL1       -0.0436
     23 C          -1.1676   -2.2907    3.7689 C.ar    1  UNL1        0.0756
     24 C          -1.7943   -3.2492    3.0032 C.ar    1  UNL1        0.1353
     25 C          -1.1877   -4.5303    3.1481 C.ar    1  UNL1       -0.0124
     26 C          -0.1205   -4.5021    4.0186 C.ar    1  UNL1       -0.0203
     27 C          -3.0179   -3.7631    1.0300 C.3     1  UNL1        0.0788
     28 H          -2.0733   -0.5436    1.9730 H       1  UNL1        0.2017
     29 H          -1.6099    0.8537    2.7730 H       1  UNL1        0.2017
     30 H           2.0834    1.8968    1.4769 H       1  UNL1        0.0302
     31 H           2.6010    0.2383    1.8785 H       1  UNL1        0.0302
     32 H           4.6369    1.6291    2.4657 H       1  UNL1        0.0293
     33 H           4.4653    3.0484    1.5180 H       1  UNL1        0.0293
     34 H           4.4274   -0.5217   -0.6355 H       1  UNL1        0.0293
     35 H           4.6127   -0.7389    1.0527 H       1  UNL1        0.0293
     36 H           1.0594    2.2516   -0.8707 H       1  UNL1        0.0296
     37 H           0.8746    0.8247   -1.9025 H       1  UNL1        0.0296
     38 H           6.8441    1.7313    1.7787 H       1  UNL1        0.0266
     39 H           6.4830    2.6431    0.3623 H       1  UNL1        0.0266
     40 H           6.3834    0.7140   -0.8713 H       1  UNL1        0.0266
     41 H           6.8570   -0.1844    0.5201 H       1  UNL1        0.0266
     42 H          -0.7081    0.0833    0.0632 H       1  UNL1        0.0326
     43 H          -0.1948    1.5314    0.9172 H       1  UNL1        0.0326
     44 H           3.2463    0.5437   -2.0149 H       1  UNL1        0.0560
     45 H           2.8212    2.1815   -2.5004 H       1  UNL1        0.0560
     46 H           0.1675   -1.2821    1.9020 H       1  UNL1        0.0814
     47 H           0.6435    0.1751    2.7466 H       1  UNL1        0.0814
     48 H           2.4681   -1.5285    1.7377 H       1  UNL1        0.0636
     49 H           2.8100   -3.8949    1.2470 H       1  UNL1        0.0619
     50 H           1.2162   -3.2617   -2.5513 H       1  UNL1        0.0829
     51 H          -2.4896   -0.7267    4.2791 H       1  UNL1        0.0873
     52 H          -0.7821   -0.3871    4.5683 H       1  UNL1        0.0873
     53 H           2.1696   -4.7673   -0.9406 H       1  UNL1        0.0633
     54 H          -1.5100   -5.3797    2.6584 H       1  UNL1        0.0659
     55 H           0.4507   -5.3276    4.2577 H       1  UNL1        0.0694
     56 H          -3.8954   -3.4409    0.5092 H       1  UNL1        0.0660
     57 H          -3.1183   -4.7953    1.2934 H       1  UNL1        0.0660
     58 H          -2.1626   -3.6374    0.3994 H       1  UNL1        0.0660
@<TRIPOS>UNITY_ATOM_ATTR
5 1
charge 1
@<TRIPOS>BOND
     1     1    23   ar
     2     1    26   ar
     3     2     6    1
     4     2    15    1
     5     3    24    1
     6     3    27    1
     7     4    16   ar
     8     4    20   ar
     9     5    17    1
    10     5    21    1
    11     5    28    1
    12     5    29    1
    13     6     8    1
    14     6     9    1
    15     6    10    1
    16     7     8    1
    17     7    11    1
    18     7    14    1
    19     7    16    1
    20     8    30    1
    21     8    31    1
    22     9    12    1
    23     9    32    1
    24     9    33    1
    25    10    13    1
    26    10    34    1
    27    10    35    1
    28    11    15    1
    29    11    36    1
    30    11    37    1
    31    12    13    1
    32    12    38    1
    33    12    39    1
    34    13    40    1
    35    13    41    1
    36    14    17    1
    37    14    42    1
    38    14    43    1
    39    15    44    1
    40    15    45    1
    41    16    18   ar
    42    17    46    1
    43    17    47    1
    44    18    19   ar
    45    18    48    1
    46    19    22   ar
    47    19    49    1
    48    20    22   ar
    49    20    50    1
    50    21    23    1
    51    21    51    1
    52    21    52    1
    53    22    53    1
    54    23    24   ar
    55    24    25   ar
    56    25    26   ar
    57    25    54    1
    58    26    55    1
    59    27    56    1
    60    27    57    1
    61    27    58    1
@<TRIPOS>MOLECULE
66555030
 58 61 0 0 0
SMALL
GASTEIGER

@<TRIPOS>ATOM
      1 S          -0.5264   -4.0152   -2.8700 S.2     1  UNL1       -0.0926
      2 O           3.7389    2.0185   -0.6934 O.3     1  UNL1       -0.3733
      3 O          -2.7973   -4.5018    0.2198 O.3     1  UNL1       -0.4941
      4 N           1.0096   -1.9957    0.6441 N.ar    1  UNL1       -0.2593
      5 N          -0.7778   -1.4999   -0.4201 N.4     1  UNL1        0.2308
      6 C           3.8512    1.2252    0.4942 C.3     1  UNL1        0.0704
      7 C           1.4231    0.3747    0.1125 C.3     1  UNL1        0.0224
      8 C           2.4643    0.9676    1.1076 C.3     1  UNL1       -0.0124
      9 C           4.7367    2.0144    1.4725 C.3     1  UNL1       -0.0237
     10 C           4.7153   -0.0215    0.2655 C.3     1  UNL1       -0.0237
     11 C           1.4573    1.2951   -1.1383 C.3     1  UNL1       -0.0181
     12 C           6.1616    1.8150    0.9589 C.3     1  UNL1       -0.0504
     13 C           6.1397    0.5192    0.1522 C.3     1  UNL1       -0.0504
     14 C           0.0115    0.4968    0.7385 C.3     1  UNL1       -0.0013
     15 C           2.8671    1.4887   -1.6863 C.3     1  UNL1        0.0492
     16 C           1.6501   -1.1244   -0.1669 C.ar    1  UNL1        0.0478
     17 C          -1.0463   -0.0856   -0.1884 C.3     1  UNL1       -0.0325
     18 C           2.4788   -1.5020   -1.2112 C.ar    1  UNL1       -0.0398
     19 C           2.6617   -2.8617   -1.4377 C.ar    1  UNL1       -0.0586
     20 C           1.2117   -3.3090    0.3936 C.ar    1  UNL1        0.0279
     21 C          -1.7684   -2.0760   -1.3184 C.3     1  UNL1        0.0021
     22 C           2.0195   -3.7888   -0.6246 C.ar    1  UNL1       -0.0436
     23 C          -1.5214   -3.5415   -1.5594 C.ar    1  UNL1        0.0756
     24 C          -1.9958   -4.6248   -0.8527 C.ar    1  UNL1        0.1353
     25 C          -1.5358   -5.8598   -1.3943 C.ar    1  UNL1       -0.0124
     26 C          -0.7278   -5.6736   -2.4942 C.ar    1  UNL1       -0.0203
     27 C          -3.2144   -5.7048    0.8804 C.3     1  UNL1        0.0788
     28 H          -0.8065   -1.9956    0.4708 H       1  UNL1        0.2017
     29 H           0.1432   -1.5909   -0.8488 H       1  UNL1        0.2017
     30 H           2.0834    1.8968    1.4769 H       1  UNL1        0.0302
     31 H           2.6010    0.2383    1.8785 H       1  UNL1        0.0302
     32 H           4.6369    1.6291    2.4657 H       1  UNL1        0.0293
     33 H           4.4653    3.0484    1.5180 H       1  UNL1        0.0293
     34 H           4.4274   -0.5217   -0.6355 H       1  UNL1        0.0293
     35 H           4.6127   -0.7389    1.0527 H       1  UNL1        0.0293
     36 H           1.0594    2.2516   -0.8707 H       1  UNL1        0.0296
     37 H           0.8746    0.8247   -1.9025 H       1  UNL1        0.0296
     38 H           6.8441    1.7313    1.7787 H       1  UNL1        0.0266
     39 H           6.4830    2.6431    0.3623 H       1  UNL1        0.0266
     40 H           6.3834    0.7140   -0.8713 H       1  UNL1        0.0266
     41 H           6.8570   -0.1844    0.5201 H       1  UNL1        0.0266
     42 H          -0.2061    1.5298    0.9131 H       1  UNL1        0.0326
     43 H          -0.0026   -0.0489    1.6588 H       1  UNL1        0.0326
     44 H           3.2463    0.5437   -2.0149 H       1  UNL1        0.0560
     45 H           2.8212    2.1815   -2.5004 H       1  UNL1        0.0560
     46 H          -2.0110    0.0235    0.2613 H       1  UNL1        0.0814
     47 H          -1.0219    0.4356   -1.1225 H       1  UNL1        0.0814
     48 H           2.9456   -0.7964   -1.8022 H       1  UNL1        0.0636
     49 H           3.2717   -3.1813   -2.2064 H       1  UNL1        0.0619
     50 H           0.7349   -3.9962    0.9981 H       1  UNL1        0.0829
     51 H          -1.7282   -1.5597   -2.2548 H       1  UNL1        0.0873
     52 H          -2.7306   -1.9722   -0.8621 H       1  UNL1        0.0873
     53 H           2.1408   -4.8026   -0.7748 H       1  UNL1        0.0633
     54 H          -1.7794   -6.7852   -1.0078 H       1  UNL1        0.0659
     55 H          -0.2949   -6.4428   -3.0287 H       1  UNL1        0.0694
     56 H          -3.8434   -5.4566    1.7097 H       1  UNL1        0.0660
     57 H          -2.3542   -6.2356    1.2313 H       1  UNL1        0.0660
     58 H          -3.7569   -6.3195    0.1928 H       1  UNL1        0.0660
@<TRIPOS>UNITY_ATOM_ATTR
5 1
charge 1
@<TRIPOS>BOND
     1     1    23   ar
     2     1    26   ar
     3     2     6    1
     4     2    15    1
     5     3    24    1
     6     3    27    1
     7     4    16   ar
     8     4    20   ar
     9     5    17    1
    10     5    21    1
    11     5    28    1
    12     5    29    1
    13     6     8    1
    14     6     9    1
    15     6    10    1
    16     7     8    1
    17     7    11    1
    18     7    14    1
    19     7    16    1
    20     8    30    1
    21     8    31    1
    22     9    12    1
    23     9    32    1
    24     9    33    1
    25    10    13    1
    26    10    34    1
    27    10    35    1
    28    11    15    1
    29    11    36    1
    30    11    37    1
    31    12    13    1
    32    12    38    1
    33    12    39    1
    34    13    40    1
    35    13    41    1
    36    14    17    1
    37    14    42    1
    38    14    43    1
    39    15    44    1
    40    15    45    1
    41    16    18   ar
    42    17    46    1
    43    17    47    1
    44    18    19   ar
    45    18    48    1
    46    19    22   ar
    47    19    49    1
    48    20    22   ar
    49    20    50    1
    50    21    23    1
    51    21    51    1
    52    21    52    1
    53    22    53    1
    54    23    24   ar
    55    24    25   ar
    56    25    26   ar
    57    25    54    1
    58    26    55    1
    59    27    56    1
    60    27    57    1
    61    27    58    1
@<TRIPOS>MOLECULE
66555030
 58 61 0 0 0
SMALL
GASTEIGER

@<TRIPOS>ATOM
      1 S           0.9059   -4.4240    1.3586 S.2     1  UNL1       -0.0926
      2 O           3.7389    2.0185   -0.6934 O.3     1  UNL1       -0.3733
      3 O           0.2504   -4.6535    5.1610 O.3     1  UNL1       -0.4941
      4 N           2.6903   -1.7085    0.4687 N.ar    1  UNL1       -0.2593
      5 N           0.2477   -1.6591    1.8559 N.4     1  UNL1        0.2308
      6 C           3.8512    1.2252    0.4942 C.3     1  UNL1        0.0704
      7 C           1.4231    0.3747    0.1125 C.3     1  UNL1        0.0224
      8 C           2.4643    0.9676    1.1076 C.3     1  UNL1       -0.0124
      9 C           4.7367    2.0144    1.4725 C.3     1  UNL1       -0.0237
     10 C           4.7153   -0.0215    0.2655 C.3     1  UNL1       -0.0237
     11 C           1.4573    1.2951   -1.1383 C.3     1  UNL1       -0.0181
     12 C           6.1616    1.8150    0.9589 C.3     1  UNL1       -0.0504
     13 C           6.1397    0.5192    0.1522 C.3     1  UNL1       -0.0504
     14 C           0.0115    0.4968    0.7385 C.3     1  UNL1       -0.0013
     15 C           2.8671    1.4887   -1.6863 C.3     1  UNL1        0.0492
     16 C           1.6501   -1.1244   -0.1669 C.ar    1  UNL1        0.0478
     17 C          -0.0619   -0.2494    2.0632 C.3     1  UNL1       -0.0325
     18 C           0.7985   -1.7894   -1.0344 C.ar    1  UNL1       -0.0398
     19 C           1.0295   -3.1412   -1.2641 C.ar    1  UNL1       -0.0586
     20 C           2.8838   -3.0235    0.2205 C.ar    1  UNL1        0.0279
     21 C           0.1675   -2.3980    3.1079 C.3     1  UNL1        0.0021
     22 C           2.0898   -3.7774   -0.6284 C.ar    1  UNL1       -0.0436
     23 C           0.5003   -3.8545    2.9216 C.ar    1  UNL1        0.0756
     24 C           0.5323   -4.8601    3.8627 C.ar    1  UNL1        0.1353
     25 C           0.8951   -6.1146    3.2928 C.ar    1  UNL1       -0.0124
     26 C           1.1262   -6.0201    1.9382 C.ar    1  UNL1       -0.0203
     27 C          -0.6739   -3.6048    5.4826 C.3     1  UNL1        0.0788
     28 H           1.1919   -1.7417    1.4791 H       1  UNL1        0.2017
     29 H          -0.4317   -2.0495    1.2028 H       1  UNL1        0.2017
     30 H           2.0834    1.8968    1.4769 H       1  UNL1        0.0302
     31 H           2.6010    0.2383    1.8785 H       1  UNL1        0.0302
     32 H           4.6369    1.6291    2.4657 H       1  UNL1        0.0293
     33 H           4.4653    3.0484    1.5180 H       1  UNL1        0.0293
     34 H           4.4274   -0.5217   -0.6355 H       1  UNL1        0.0293
     35 H           4.6127   -0.7389    1.0527 H       1  UNL1        0.0293
     36 H           1.0594    2.2516   -0.8707 H       1  UNL1        0.0296
     37 H           0.8746    0.8247   -1.9025 H       1  UNL1        0.0296
     38 H           6.8441    1.7313    1.7787 H       1  UNL1        0.0266
     39 H           6.4830    2.6431    0.3623 H       1  UNL1        0.0266
     40 H           6.3834    0.7140   -0.8713 H       1  UNL1        0.0266
     41 H           6.8570   -0.1844    0.5201 H       1  UNL1        0.0266
     42 H          -0.7081    0.0833    0.0632 H       1  UNL1        0.0326
     43 H          -0.1948    1.5314    0.9172 H       1  UNL1        0.0326
     44 H           3.2463    0.5437   -2.0149 H       1  UNL1        0.0560
     45 H           2.8212    2.1815   -2.5004 H       1  UNL1        0.0560
     46 H           0.6443    0.1721    2.7476 H       1  UNL1        0.0814
     47 H          -1.0503   -0.1608    2.4635 H       1  UNL1        0.0814
     48 H           0.0175   -1.2970   -1.4954 H       1  UNL1        0.0636
     49 H           0.4163   -3.6701   -1.9039 H       1  UNL1        0.0619
     50 H           3.6714   -3.4946    0.6925 H       1  UNL1        0.0829
     51 H          -0.8269   -2.3168    3.4946 H       1  UNL1        0.0873
     52 H           0.8804   -1.9788    3.7869 H       1  UNL1        0.0873
     53 H           2.2794   -4.7799   -0.7841 H       1  UNL1        0.0633
     54 H           0.9754   -6.9911    3.8316 H       1  UNL1        0.0659
     55 H           1.3999   -6.8173    1.3427 H       1  UNL1        0.0694
     56 H          -0.8020   -3.5553    6.5438 H       1  UNL1        0.0660
     57 H          -1.6168   -3.8057    5.0184 H       1  UNL1        0.0660
     58 H          -0.2923   -2.6711    5.1254 H       1  UNL1        0.0660
@<TRIPOS>UNITY_ATOM_ATTR
5 1
charge 1
@<TRIPOS>BOND
     1     1    23   ar
     2     1    26   ar
     3     2     6    1
     4     2    15    1
     5     3    24    1
     6     3    27    1
     7     4    16   ar
     8     4    20   ar
     9     5    17    1
    10     5    21    1
    11     5    28    1
    12     5    29    1
    13     6     8    1
    14     6     9    1
    15     6    10    1
    16     7     8    1
    17     7    11    1
    18     7    14    1
    19     7    16    1
    20     8    30    1
    21     8    31    1
    22     9    12    1
    23     9    32    1
    24     9    33    1
    25    10    13    1
    26    10    34    1
    27    10    35    1
    28    11    15    1
    29    11    36    1
    30    11    37    1
    31    12    13    1
    32    12    38    1
    33    12    39    1
    34    13    40    1
    35    13    41    1
    36    14    17    1
    37    14    42    1
    38    14    43    1
    39    15    44    1
    40    15    45    1
    41    16    18   ar
    42    17    46    1
    43    17    47    1
    44    18    19   ar
    45    18    48    1
    46    19    22   ar
    47    19    49    1
    48    20    22   ar
    49    20    50    1
    50    21    23    1
    51    21    51    1
    52    21    52    1
    53    22    53    1
    54    23    24   ar
    55    24    25   ar
    56    25    26   ar
    57    25    54    1
    58    26    55    1
    59    27    56    1
    60    27    57    1
    61    27    58    1
@<TRIPOS>MOLECULE
66555030
 58 61 0 0 0
SMALL
GASTEIGER

@<TRIPOS>ATOM
      1 S          -2.4045   -2.9175    0.5184 S.2     1  UNL1       -0.0926
      2 O           3.7389    2.0185   -0.6934 O.3     1  UNL1       -0.3733
      3 O          -4.1402   -2.2167   -2.8634 O.3     1  UNL1       -0.4941
      4 N           1.8907   -1.4719   -1.4509 N.ar    1  UNL1       -0.2593
      5 N          -2.3661    0.0561    0.4148 N.4     1  UNL1        0.2308
      6 C           3.8512    1.2252    0.4942 C.3     1  UNL1        0.0704
      7 C           1.4231    0.3747    0.1125 C.3     1  UNL1        0.0224
      8 C           2.4643    0.9676    1.1076 C.3     1  UNL1       -0.0124
      9 C           4.7367    2.0144    1.4725 C.3     1  UNL1       -0.0237
     10 C           4.7153   -0.0215    0.2655 C.3     1  UNL1       -0.0237
     11 C           1.4573    1.2951   -1.1383 C.3     1  UNL1       -0.0181
     12 C           6.1616    1.8150    0.9589 C.3     1  UNL1       -0.0504
     13 C           6.1397    0.5192    0.1522 C.3     1  UNL1       -0.0504
     14 C           0.0115    0.4968    0.7385 C.3     1  UNL1       -0.0013
     15 C           2.8671    1.4887   -1.6863 C.3     1  UNL1        0.0492
     16 C           1.6501   -1.1244   -0.1669 C.ar    1  UNL1        0.0478
     17 C          -1.0463   -0.0856   -0.1884 C.3     1  UNL1       -0.0325
     18 C           1.5996   -2.0257    0.8843 C.ar    1  UNL1       -0.0398
     19 C           1.8099   -3.3703    0.5992 C.ar    1  UNL1       -0.0586
     20 C           2.0900   -2.7877   -1.6896 C.ar    1  UNL1        0.0279
     21 C          -3.3944   -0.5095   -0.4471 C.3     1  UNL1        0.0021
     22 C           2.0605   -3.7667   -0.7097 C.ar    1  UNL1       -0.0436
     23 C          -3.1775   -1.9798   -0.6879 C.ar    1  UNL1        0.0756
     24 C          -3.5217   -2.7346   -1.7878 C.ar    1  UNL1        0.1353
     25 C          -3.1463   -4.1009   -1.6377 C.ar    1  UNL1       -0.0124
     26 C          -2.5292   -4.3382   -0.4293 C.ar    1  UNL1       -0.0203
     27 C          -4.4593   -3.1079   -3.9411 C.3     1  UNL1        0.0788
     28 H          -2.5614    1.0463    0.5623 H       1  UNL1        0.2017
     29 H          -2.3739   -0.4445    1.3035 H       1  UNL1        0.2017
     30 H           2.0834    1.8968    1.4769 H       1  UNL1        0.0302
     31 H           2.6010    0.2383    1.8785 H       1  UNL1        0.0302
     32 H           4.6369    1.6291    2.4657 H       1  UNL1        0.0293
     33 H           4.4653    3.0484    1.5180 H       1  UNL1        0.0293
     34 H           4.4274   -0.5217   -0.6355 H       1  UNL1        0.0293
     35 H           4.6127   -0.7389    1.0527 H       1  UNL1        0.0293
     36 H           1.0594    2.2516   -0.8707 H       1  UNL1        0.0296
     37 H           0.8746    0.8247   -1.9025 H       1  UNL1        0.0296
     38 H           6.8441    1.7313    1.7787 H       1  UNL1        0.0266
     39 H           6.4830    2.6431    0.3623 H       1  UNL1        0.0266
     40 H           6.3834    0.7140   -0.8713 H       1  UNL1        0.0266
     41 H           6.8570   -0.1844    0.5201 H       1  UNL1        0.0266
     42 H          -0.2061    1.5298    0.9131 H       1  UNL1        0.0326
     43 H          -0.0026   -0.0489    1.6588 H       1  UNL1        0.0326
     44 H           3.2463    0.5437   -2.0149 H       1  UNL1        0.0560
     45 H           2.8212    2.1815   -2.5004 H       1  UNL1        0.0560
     46 H          -1.0252    0.4356   -1.1226 H       1  UNL1        0.0814
     47 H          -0.8415   -1.1235   -0.3488 H       1  UNL1        0.0814
     48 H           1.4119   -1.7091    1.8484 H       1  UNL1        0.0636
     49 H           1.7800   -4.0712    1.3561 H       1  UNL1        0.0619
     50 H           2.2755   -3.0808   -2.6615 H       1  UNL1        0.0829
     51 H          -3.3775    0.0014   -1.3871 H       1  UNL1        0.0873
     52 H          -4.3393   -0.3888    0.0402 H       1  UNL1        0.0873
     53 H           2.2196   -4.7591   -0.9440 H       1  UNL1        0.0633
     54 H          -3.3166   -4.8274   -2.3506 H       1  UNL1        0.0659
     55 H          -2.1828   -5.2632   -0.1303 H       1  UNL1        0.0694
     56 H          -4.9449   -2.5625   -4.7231 H       1  UNL1        0.0660
     57 H          -5.1111   -3.8784   -3.5856 H       1  UNL1        0.0660
     58 H          -3.5597   -3.5477   -4.3184 H       1  UNL1        0.0660
@<TRIPOS>UNITY_ATOM_ATTR
5 1
charge 1
@<TRIPOS>BOND
     1     1    23   ar
     2     1    26   ar
     3     2     6    1
     4     2    15    1
     5     3    24    1
     6     3    27    1
     7     4    16   ar
     8     4    20   ar
     9     5    17    1
    10     5    21    1
    11     5    28    1
    12     5    29    1
    13     6     8    1
    14     6     9    1
    15     6    10    1
    16     7     8    1
    17     7    11    1
    18     7    14    1
    19     7    16    1
    20     8    30    1
    21     8    31    1
    22     9    12    1
    23     9    32    1
    24     9    33    1
    25    10    13    1
    26    10    34    1
    27    10    35    1
    28    11    15    1
    29    11    36    1
    30    11    37    1
    31    12    13    1
    32    12    38    1
    33    12    39    1
    34    13    40    1
    35    13    41    1
    36    14    17    1
    37    14    42    1
    38    14    43    1
    39    15    44    1
    40    15    45    1
    41    16    18   ar
    42    17    46    1
    43    17    47    1
    44    18    19   ar
    45    18    48    1
    46    19    22   ar
    47    19    49    1
    48    20    22   ar
    49    20    50    1
    50    21    23    1
    51    21    51    1
    52    21    52    1
    53    22    53    1
    54    23    24   ar
    55    24    25   ar
    56    25    26   ar
    57    25    54    1
    58    26    55    1
    59    27    56    1
    60    27    57    1
    61    27    58    1
@<TRIPOS>MOLECULE
66555030
 58 61 0 0 0
SMALL
GASTEIGER

@<TRIPOS>ATOM
      1 S          -0.8000   -2.7638    2.4107 S.2     1  UNL1       -0.0926
      2 O           3.7389    2.0185   -0.6934 O.3     1  UNL1       -0.3733
      3 O          -3.8784   -2.7655    0.0732 O.3     1  UNL1       -0.4941
      4 N           2.2078   -1.8488    0.8289 N.ar    1  UNL1       -0.2593
      5 N          -2.3661    0.0561    0.4148 N.4     1  UNL1        0.2308
      6 C           3.8512    1.2252    0.4942 C.3     1  UNL1        0.0704
      7 C           1.4231    0.3747    0.1125 C.3     1  UNL1        0.0224
      8 C           2.4643    0.9676    1.1076 C.3     1  UNL1       -0.0124
      9 C           4.7367    2.0144    1.4725 C.3     1  UNL1       -0.0237
     10 C           4.7153   -0.0215    0.2655 C.3     1  UNL1       -0.0237
     11 C           1.4573    1.2951   -1.1383 C.3     1  UNL1       -0.0181
     12 C           6.1616    1.8150    0.9589 C.3     1  UNL1       -0.0504
     13 C           6.1397    0.5192    0.1522 C.3     1  UNL1       -0.0504
     14 C           0.0115    0.4968    0.7385 C.3     1  UNL1       -0.0013
     15 C           2.8671    1.4887   -1.6863 C.3     1  UNL1        0.0492
     16 C           1.6501   -1.1244   -0.1669 C.ar    1  UNL1        0.0478
     17 C          -1.0463   -0.0856   -0.1884 C.3     1  UNL1       -0.0325
     18 C           1.2807   -1.6492   -1.3950 C.ar    1  UNL1       -0.0398
     19 C           1.4975   -3.0049   -1.6150 C.ar    1  UNL1       -0.0586
     20 C           2.4034   -3.1629    0.5784 C.ar    1  UNL1        0.0279
     21 C          -2.4270   -0.6295    1.6979 C.3     1  UNL1        0.0021
     22 C           2.0690   -3.7832   -0.6145 C.ar    1  UNL1       -0.0436
     23 C          -2.1310   -2.0995    1.5627 C.ar    1  UNL1        0.0756
     24 C          -2.7990   -3.0503    0.8226 C.ar    1  UNL1        0.1353
     25 C          -2.2104   -4.3411    0.9541 C.ar    1  UNL1       -0.0124
     26 C          -1.1151   -4.3278    1.7891 C.ar    1  UNL1       -0.0203
     27 C          -3.9757   -1.4452   -0.4791 C.3     1  UNL1        0.0788
     28 H          -3.0643   -0.3447   -0.2115 H       1  UNL1        0.2017
     29 H          -2.5508    1.0478    0.5659 H       1  UNL1        0.2017
     30 H           2.0834    1.8968    1.4769 H       1  UNL1        0.0302
     31 H           2.6010    0.2383    1.8785 H       1  UNL1        0.0302
     32 H           4.6369    1.6291    2.4657 H       1  UNL1        0.0293
     33 H           4.4653    3.0484    1.5180 H       1  UNL1        0.0293
     34 H           4.4274   -0.5217   -0.6355 H       1  UNL1        0.0293
     35 H           4.6127   -0.7389    1.0527 H       1  UNL1        0.0293
     36 H           1.0594    2.2516   -0.8707 H       1  UNL1        0.0296
     37 H           0.8746    0.8247   -1.9025 H       1  UNL1        0.0296
     38 H           6.8441    1.7313    1.7787 H       1  UNL1        0.0266
     39 H           6.4830    2.6431    0.3623 H       1  UNL1        0.0266
     40 H           6.3834    0.7140   -0.8713 H       1  UNL1        0.0266
     41 H           6.8570   -0.1844    0.5201 H       1  UNL1        0.0266
     42 H          -0.2061    1.5298    0.9131 H       1  UNL1        0.0326
     43 H          -0.0026   -0.0489    1.6588 H       1  UNL1        0.0326
     44 H           3.2463    0.5437   -2.0149 H       1  UNL1        0.0560
     45 H           2.8212    2.1815   -2.5004 H       1  UNL1        0.0560
     46 H          -1.0252    0.4356   -1.1226 H       1  UNL1        0.0814
     47 H          -0.8415   -1.1235   -0.3488 H       1  UNL1        0.0814
     48 H           0.8580   -1.0527   -2.1233 H       1  UNL1        0.0636
     49 H           1.2353   -3.4318   -2.5172 H       1  UNL1        0.0619
     50 H           2.8281   -3.7395    1.3215 H       1  UNL1        0.0829
     51 H          -3.4081   -0.5102    2.1078 H       1  UNL1        0.0873
     52 H          -1.6865   -0.1994    2.3395 H       1  UNL1        0.0873
     53 H           2.2387   -4.7913   -0.7560 H       1  UNL1        0.0633
     54 H          -2.5633   -5.1869    0.4794 H       1  UNL1        0.0659
     55 H          -0.5508   -5.1622    2.0137 H       1  UNL1        0.0694
     56 H          -4.8783   -1.3621   -1.0477 H       1  UNL1        0.0660
     57 H          -3.1352   -1.2620   -1.1153 H       1  UNL1        0.0660
     58 H          -3.9862   -0.7268    0.3139 H       1  UNL1        0.0660
@<TRIPOS>UNITY_ATOM_ATTR
5 1
charge 1
@<TRIPOS>BOND
     1     1    23   ar
     2     1    26   ar
     3     2     6    1
     4     2    15    1
     5     3    24    1
     6     3    27    1
     7     4    16   ar
     8     4    20   ar
     9     5    17    1
    10     5    21    1
    11     5    28    1
    12     5    29    1
    13     6     8    1
    14     6     9    1
    15     6    10    1
    16     7     8    1
    17     7    11    1
    18     7    14    1
    19     7    16    1
    20     8    30    1
    21     8    31    1
    22     9    12    1
    23     9    32    1
    24     9    33    1
    25    10    13    1
    26    10    34    1
    27    10    35    1
    28    11    15    1
    29    11    36    1
    30    11    37    1
    31    12    13    1
    32    12    38    1
    33    12    39    1
    34    13    40    1
    35    13    41    1
    36    14    17    1
    37    14    42    1
    38    14    43    1
    39    15    44    1
    40    15    45    1
    41    16    18   ar
    42    17    46    1
    43    17    47    1
    44    18    19   ar
    45    18    48    1
    46    19    22   ar
    47    19    49    1
    48    20    22   ar
    49    20    50    1
    50    21    23    1
    51    21    51    1
    52    21    52    1
    53    22    53    1
    54    23    24   ar
    55    24    25   ar
    56    25    26   ar
    57    25    54    1
    58    26    55    1
    59    27    56    1
    60    27    57    1
    61    27    58    1
@<TRIPOS>MOLECULE
66555030
 58 61 0 0 0
SMALL
GASTEIGER

@<TRIPOS>ATOM
      1 S          -4.7183    0.7951    1.8900 S.2     1  UNL1       -0.0926
      2 O           3.7389    2.0185   -0.6934 O.3     1  UNL1       -0.3733
      3 O          -3.9516   -2.6233    3.5230 O.3     1  UNL1       -0.4941
      4 N           1.2845   -1.5755   -1.3876 N.ar    1  UNL1       -0.2593
      5 N          -1.4031   -0.1338    2.6236 N.4     1  UNL1        0.2308
      6 C           3.8512    1.2252    0.4942 C.3     1  UNL1        0.0704
      7 C           1.4231    0.3747    0.1125 C.3     1  UNL1        0.0224
      8 C           2.4643    0.9676    1.1076 C.3     1  UNL1       -0.0124
      9 C           4.7367    2.0144    1.4725 C.3     1  UNL1       -0.0237
     10 C           4.7153   -0.0215    0.2655 C.3     1  UNL1       -0.0237
     11 C           1.4573    1.2951   -1.1383 C.3     1  UNL1       -0.0181
     12 C           6.1616    1.8150    0.9589 C.3     1  UNL1       -0.0504
     13 C           6.1397    0.5192    0.1522 C.3     1  UNL1       -0.0504
     14 C           0.0115    0.4968    0.7385 C.3     1  UNL1       -0.0013
     15 C           2.8671    1.4887   -1.6863 C.3     1  UNL1        0.0492
     16 C           1.6501   -1.1244   -0.1669 C.ar    1  UNL1        0.0478
     17 C          -0.0619   -0.2494    2.0632 C.3     1  UNL1       -0.0325
     18 C           2.2057   -1.9221    0.8205 C.ar    1  UNL1       -0.0398
     19 C           2.3986   -3.2695    0.5366 C.ar    1  UNL1       -0.0586
     20 C           1.4869   -2.8907   -1.6271 C.ar    1  UNL1        0.0279
     21 C          -2.3926   -0.7130    1.7261 C.3     1  UNL1        0.0021
     22 C           2.0352   -3.7708   -0.7083 C.ar    1  UNL1       -0.0436
     23 C          -3.7886   -0.5899    2.2763 C.ar    1  UNL1        0.0756
     24 C          -4.4770   -1.4647    3.0880 C.ar    1  UNL1        0.1353
     25 C          -5.7851   -0.9915    3.3963 C.ar    1  UNL1       -0.0124
     26 C          -6.0466    0.2266    2.8089 C.ar    1  UNL1       -0.0203
     27 C          -4.8518   -3.7144    3.7611 C.3     1  UNL1        0.0788
     28 H          -1.6204    0.8521    2.7690 H       1  UNL1        0.2017
     29 H          -1.4310   -0.6390    3.5093 H       1  UNL1        0.2017
     30 H           2.0834    1.8968    1.4769 H       1  UNL1        0.0302
     31 H           2.6010    0.2383    1.8785 H       1  UNL1        0.0302
     32 H           4.6369    1.6291    2.4657 H       1  UNL1        0.0293
     33 H           4.4653    3.0484    1.5180 H       1  UNL1        0.0293
     34 H           4.4274   -0.5217   -0.6355 H       1  UNL1        0.0293
     35 H           4.6127   -0.7389    1.0527 H       1  UNL1        0.0293
     36 H           1.0594    2.2516   -0.8707 H       1  UNL1        0.0296
     37 H           0.8746    0.8247   -1.9025 H       1  UNL1        0.0296
     38 H           6.8441    1.7313    1.7787 H       1  UNL1        0.0266
     39 H           6.4830    2.6431    0.3623 H       1  UNL1        0.0266
     40 H           6.3834    0.7140   -0.8713 H       1  UNL1        0.0266
     41 H           6.8570   -0.1844    0.5201 H       1  UNL1        0.0266
     42 H          -0.7081    0.0833    0.0632 H       1  UNL1        0.0326
     43 H          -0.1948    1.5314    0.9172 H       1  UNL1        0.0326
     44 H           3.2463    0.5437   -2.0149 H       1  UNL1        0.0560
     45 H           2.8212    2.1815   -2.5004 H       1  UNL1        0.0560
     46 H           0.1675   -1.2821    1.9020 H       1  UNL1        0.0814
     47 H           0.6435    0.1751    2.7466 H       1  UNL1        0.0814
     48 H           2.4681   -1.5285    1.7377 H       1  UNL1        0.0636
     49 H           2.8100   -3.8949    1.2470 H       1  UNL1        0.0619
     50 H           1.2162   -3.2617   -2.5513 H       1  UNL1        0.0829
     51 H          -2.1666   -1.7492    1.5841 H       1  UNL1        0.0873
     52 H          -2.3528   -0.1795    0.7994 H       1  UNL1        0.0873
     53 H           2.1696   -4.7673   -0.9406 H       1  UNL1        0.0633
     54 H          -6.4578   -1.5016    3.9900 H       1  UNL1        0.0659
     55 H          -6.9379    0.7366    2.9107 H       1  UNL1        0.0694
     56 H          -4.2990   -4.5652    4.1010 H       1  UNL1        0.0660
     57 H          -5.3622   -3.9602    2.8534 H       1  UNL1        0.0660
     58 H          -5.5656   -3.4318    4.5064 H       1  UNL1        0.0660
@<TRIPOS>UNITY_ATOM_ATTR
5 1
charge 1
@<TRIPOS>BOND
     1     1    23   ar
     2     1    26   ar
     3     2     6    1
     4     2    15    1
     5     3    24    1
     6     3    27    1
     7     4    16   ar
     8     4    20   ar
     9     5    17    1
    10     5    21    1
    11     5    28    1
    12     5    29    1
    13     6     8    1
    14     6     9    1
    15     6    10    1
    16     7     8    1
    17     7    11    1
    18     7    14    1
    19     7    16    1
    20     8    30    1
    21     8    31    1
    22     9    12    1
    23     9    32    1
    24     9    33    1
    25    10    13    1
    26    10    34    1
    27    10    35    1
    28    11    15    1
    29    11    36    1
    30    11    37    1
    31    12    13    1
    32    12    38    1
    33    12    39    1
    34    13    40    1
    35    13    41    1
    36    14    17    1
    37    14    42    1
    38    14    43    1
    39    15    44    1
    40    15    45    1
    41    16    18   ar
    42    17    46    1
    43    17    47    1
    44    18    19   ar
    45    18    48    1
    46    19    22   ar
    47    19    49    1
    48    20    22   ar
    49    20    50    1
    50    21    23    1
    51    21    51    1
    52    21    52    1
    53    22    53    1
    54    23    24   ar
    55    24    25   ar
    56    25    26   ar
    57    25    54    1
    58    26    55    1
    59    27    56    1
    60    27    57    1
    61    27    58    1
@<TRIPOS>MOLECULE
66555030
 58 61 0 0 0
SMALL
GASTEIGER

@<TRIPOS>ATOM
      1 S          -2.5344   -2.8767    2.8954 S.2     1  UNL1       -0.0926
      2 O           3.7389    2.0185   -0.6934 O.3     1  UNL1       -0.3733
      3 O          -3.0959   -0.9277   -0.3951 O.3     1  UNL1       -0.4941
      4 N           2.6903   -1.7085    0.4687 N.ar    1  UNL1       -0.2593
      5 N           0.2477   -1.6591    1.8559 N.4     1  UNL1        0.2308
      6 C           3.8512    1.2252    0.4942 C.3     1  UNL1        0.0704
      7 C           1.4231    0.3747    0.1125 C.3     1  UNL1        0.0224
      8 C           2.4643    0.9676    1.1076 C.3     1  UNL1       -0.0124
      9 C           4.7367    2.0144    1.4725 C.3     1  UNL1       -0.0237
     10 C           4.7153   -0.0215    0.2655 C.3     1  UNL1       -0.0237
     11 C           1.4573    1.2951   -1.1383 C.3     1  UNL1       -0.0181
     12 C           6.1616    1.8150    0.9589 C.3     1  UNL1       -0.0504
     13 C           6.1397    0.5192    0.1522 C.3     1  UNL1       -0.0504
     14 C           0.0115    0.4968    0.7385 C.3     1  UNL1       -0.0013
     15 C           2.8671    1.4887   -1.6863 C.3     1  UNL1        0.0492
     16 C           1.6501   -1.1244   -0.1669 C.ar    1  UNL1        0.0478
     17 C          -0.0619   -0.2494    2.0632 C.3     1  UNL1       -0.0325
     18 C           0.7985   -1.7894   -1.0344 C.ar    1  UNL1       -0.0398
     19 C           1.0295   -3.1412   -1.2641 C.ar    1  UNL1       -0.0586
     20 C           2.8838   -3.0235    0.2205 C.ar    1  UNL1        0.0279
     21 C          -0.6861   -2.2631    0.9161 C.3     1  UNL1        0.0021
     22 C           2.0898   -3.7774   -0.6284 C.ar    1  UNL1       -0.0436
     23 C          -2.1091   -2.1638    1.3977 C.ar    1  UNL1        0.0756
     24 C          -3.1858   -1.5556    0.7904 C.ar    1  UNL1        0.1353
     25 C          -4.3754   -1.6762    1.5653 C.ar    1  UNL1       -0.0124
     26 C          -4.1628   -2.3721    2.7349 C.ar    1  UNL1       -0.0203
     27 C          -4.2586   -0.9221   -1.2351 C.3     1  UNL1        0.0788
     28 H           0.1872   -2.1491    2.7484 H       1  UNL1        0.2017
     29 H           1.1899   -1.7329    1.4722 H       1  UNL1        0.2017
     30 H           2.0834    1.8968    1.4769 H       1  UNL1        0.0302
     31 H           2.6010    0.2383    1.8785 H       1  UNL1        0.0302
     32 H           4.6369    1.6291    2.4657 H       1  UNL1        0.0293
     33 H           4.4653    3.0484    1.5180 H       1  UNL1        0.0293
     34 H           4.4274   -0.5217   -0.6355 H       1  UNL1        0.0293
     35 H           4.6127   -0.7389    1.0527 H       1  UNL1        0.0293
     36 H           1.0594    2.2516   -0.8707 H       1  UNL1        0.0296
     37 H           0.8746    0.8247   -1.9025 H       1  UNL1        0.0296
     38 H           6.8441    1.7313    1.7787 H       1  UNL1        0.0266
     39 H           6.4830    2.6431    0.3623 H       1  UNL1        0.0266
     40 H           6.3834    0.7140   -0.8713 H       1  UNL1        0.0266
     41 H           6.8570   -0.1844    0.5201 H       1  UNL1        0.0266
     42 H          -0.7081    0.0833    0.0632 H       1  UNL1        0.0326
     43 H          -0.1948    1.5314    0.9172 H       1  UNL1        0.0326
     44 H           3.2463    0.5437   -2.0149 H       1  UNL1        0.0560
     45 H           2.8212    2.1815   -2.5004 H       1  UNL1        0.0560
     46 H           0.6443    0.1721    2.7476 H       1  UNL1        0.0814
     47 H          -1.0503   -0.1608    2.4635 H       1  UNL1        0.0814
     48 H           0.0175   -1.2970   -1.4954 H       1  UNL1        0.0636
     49 H           0.4163   -3.6701   -1.9039 H       1  UNL1        0.0619
     50 H           3.6714   -3.4946    0.6925 H       1  UNL1        0.0829
     51 H          -0.4337   -3.2956    0.7927 H       1  UNL1        0.0873
     52 H          -0.6120   -1.7348   -0.0114 H       1  UNL1        0.0873
     53 H           2.2794   -4.7799   -0.7841 H       1  UNL1        0.0633
     54 H          -5.2891   -1.2878    1.2835 H       1  UNL1        0.0659
     55 H          -4.8982   -2.5664    3.4323 H       1  UNL1        0.0694
     56 H          -4.0432   -0.3910   -2.1387 H       1  UNL1        0.0660
     57 H          -5.0662   -0.4420   -0.7231 H       1  UNL1        0.0660
     58 H          -4.5336   -1.9291   -1.4702 H       1  UNL1        0.0660
@<TRIPOS>UNITY_ATOM_ATTR
5 1
charge 1
@<TRIPOS>BOND
     1     1    23   ar
     2     1    26   ar
     3     2     6    1
     4     2    15    1
     5     3    24    1
     6     3    27    1
     7     4    16   ar
     8     4    20   ar
     9     5    17    1
    10     5    21    1
    11     5    28    1
    12     5    29    1
    13     6     8    1
    14     6     9    1
    15     6    10    1
    16     7     8    1
    17     7    11    1
    18     7    14    1
    19     7    16    1
    20     8    30    1
    21     8    31    1
    22     9    12    1
    23     9    32    1
    24     9    33    1
    25    10    13    1
    26    10    34    1
    27    10    35    1
    28    11    15    1
    29    11    36    1
    30    11    37    1
    31    12    13    1
    32    12    38    1
    33    12    39    1
    34    13    40    1
    35    13    41    1
    36    14    17    1
    37    14    42    1
    38    14    43    1
    39    15    44    1
    40    15    45    1
    41    16    18   ar
    42    17    46    1
    43    17    47    1
    44    18    19   ar
    45    18    48    1
    46    19    22   ar
    47    19    49    1
    48    20    22   ar
    49    20    50    1
    50    21    23    1
    51    21    51    1
    52    21    52    1
    53    22    53    1
    54    23    24   ar
    55    24    25   ar
    56    25    26   ar
    57    25    54    1
    58    26    55    1
    59    27    56    1
    60    27    57    1
    61    27    58    1
@<TRIPOS>MOLECULE
66555030
 58 61 0 0 0
SMALL
GASTEIGER

@<TRIPOS>ATOM
      1 S          -1.7259   -0.9119    1.2439 S.2     1  UNL1       -0.0926
      2 O           3.7389    2.0185   -0.6934 O.3     1  UNL1       -0.3733
      3 O          -0.3814   -0.5757    4.8522 O.3     1  UNL1       -0.4941
      4 N           1.5734   -1.9572    0.8951 N.ar    1  UNL1       -0.2593
      5 N          -1.6674    2.0414    1.6033 N.4     1  UNL1        0.2308
      6 C           3.8512    1.2252    0.4942 C.3     1  UNL1        0.0704
      7 C           1.4231    0.3747    0.1125 C.3     1  UNL1        0.0224
      8 C           2.4643    0.9676    1.1076 C.3     1  UNL1       -0.0124
      9 C           4.7367    2.0144    1.4725 C.3     1  UNL1       -0.0237
     10 C           4.7153   -0.0215    0.2655 C.3     1  UNL1       -0.0237
     11 C           1.4573    1.2951   -1.1383 C.3     1  UNL1       -0.0181
     12 C           6.1616    1.8150    0.9589 C.3     1  UNL1       -0.0504
     13 C           6.1397    0.5192    0.1522 C.3     1  UNL1       -0.0504
     14 C           0.0115    0.4968    0.7385 C.3     1  UNL1       -0.0013
     15 C           2.8671    1.4887   -1.6863 C.3     1  UNL1        0.0492
     16 C           1.6501   -1.1244   -0.1669 C.ar    1  UNL1        0.0478
     17 C          -0.3430    1.9539    0.9995 C.3     1  UNL1       -0.0325
     18 C           1.9150   -1.5407   -1.4617 C.ar    1  UNL1       -0.0398
     19 C           2.1137   -2.8994   -1.6805 C.ar    1  UNL1       -0.0586
     20 C           1.7723   -3.2707    0.6437 C.ar    1  UNL1        0.0279
     21 C          -1.7056    1.3346    2.8758 C.3     1  UNL1        0.0021
     22 C           2.0424   -3.7875   -0.6130 C.ar    1  UNL1       -0.0436
     23 C          -1.3596   -0.1222    2.7185 C.ar    1  UNL1        0.0756
     24 C          -0.7608   -0.9702    3.6242 C.ar    1  UNL1        0.1353
     25 C          -0.6002   -2.2854    3.1002 C.ar    1  UNL1       -0.0124
     26 C          -1.0825   -2.3926    1.8144 C.ar    1  UNL1       -0.0203
     27 C          -0.6182    0.7919    5.2147 C.3     1  UNL1        0.0788
     28 H          -2.3511    1.6266    0.9702 H       1  UNL1        0.2017
     29 H          -1.8858    3.0238    1.7693 H       1  UNL1        0.2017
     30 H           2.0834    1.8968    1.4769 H       1  UNL1        0.0302
     31 H           2.6010    0.2383    1.8785 H       1  UNL1        0.0302
     32 H           4.6369    1.6291    2.4657 H       1  UNL1        0.0293
     33 H           4.4653    3.0484    1.5180 H       1  UNL1        0.0293
     34 H           4.4274   -0.5217   -0.6355 H       1  UNL1        0.0293
     35 H           4.6127   -0.7389    1.0527 H       1  UNL1        0.0293
     36 H           1.0594    2.2516   -0.8707 H       1  UNL1        0.0296
     37 H           0.8746    0.8247   -1.9025 H       1  UNL1        0.0296
     38 H           6.8441    1.7313    1.7787 H       1  UNL1        0.0266
     39 H           6.4830    2.6431    0.3623 H       1  UNL1        0.0266
     40 H           6.3834    0.7140   -0.8713 H       1  UNL1        0.0266
     41 H           6.8570   -0.1844    0.5201 H       1  UNL1        0.0266
     42 H          -0.0089   -0.0399    1.6640 H       1  UNL1        0.0326
     43 H          -0.7025    0.0887    0.0539 H       1  UNL1        0.0326
     44 H           3.2463    0.5437   -2.0149 H       1  UNL1        0.0560
     45 H           2.8212    2.1815   -2.5004 H       1  UNL1        0.0560
     46 H           0.3788    2.3813    1.6638 H       1  UNL1        0.0814
     47 H          -0.3422    2.4885    0.0726 H       1  UNL1        0.0814
     48 H           1.9632   -0.8638   -2.2391 H       1  UNL1        0.0636
     49 H           2.3131   -3.2473   -2.6314 H       1  UNL1        0.0619
     50 H           1.7197   -3.9288    1.4369 H       1  UNL1        0.0829
     51 H          -2.6905    1.4141    3.2863 H       1  UNL1        0.0873
     52 H          -0.9806    1.7798    3.5247 H       1  UNL1        0.0873
     53 H           2.1863   -4.7999   -0.7525 H       1  UNL1        0.0633
     54 H          -0.1726   -3.0660    3.6226 H       1  UNL1        0.0659
     55 H          -1.0590   -3.2629    1.2603 H       1  UNL1        0.0694
     56 H          -0.2685    0.9623    6.2115 H       1  UNL1        0.0660
     57 H          -1.6670    0.9977    5.1645 H       1  UNL1        0.0660
     58 H          -0.0956    1.4357    4.5384 H       1  UNL1        0.0660
@<TRIPOS>UNITY_ATOM_ATTR
5 1
charge 1
@<TRIPOS>BOND
     1     1    23   ar
     2     1    26   ar
     3     2     6    1
     4     2    15    1
     5     3    24    1
     6     3    27    1
     7     4    16   ar
     8     4    20   ar
     9     5    17    1
    10     5    21    1
    11     5    28    1
    12     5    29    1
    13     6     8    1
    14     6     9    1
    15     6    10    1
    16     7     8    1
    17     7    11    1
    18     7    14    1
    19     7    16    1
    20     8    30    1
    21     8    31    1
    22     9    12    1
    23     9    32    1
    24     9    33    1
    25    10    13    1
    26    10    34    1
    27    10    35    1
    28    11    15    1
    29    11    36    1
    30    11    37    1
    31    12    13    1
    32    12    38    1
    33    12    39    1
    34    13    40    1
    35    13    41    1
    36    14    17    1
    37    14    42    1
    38    14    43    1
    39    15    44    1
    40    15    45    1
    41    16    18   ar
    42    17    46    1
    43    17    47    1
    44    18    19   ar
    45    18    48    1
    46    19    22   ar
    47    19    49    1
    48    20    22   ar
    49    20    50    1
    50    21    23    1
    51    21    51    1
    52    21    52    1
    53    22    53    1
    54    23    24   ar
    55    24    25   ar
    56    25    26   ar
    57    25    54    1
    58    26    55    1
    59    27    56    1
    60    27    57    1
    61    27    58    1
@<TRIPOS>MOLECULE
66555030
 58 61 0 0 0
SMALL
GASTEIGER

@<TRIPOS>ATOM
      1 S          -2.3178   -1.1007    1.6906 S.2     1  UNL1       -0.0926
      2 O           3.7389    2.0185   -0.6934 O.3     1  UNL1       -0.3733
      3 O           0.5485   -0.2791    4.1502 O.3     1  UNL1       -0.4941
      4 N           1.5734   -1.9572    0.8951 N.ar    1  UNL1       -0.2593
      5 N          -1.6674    2.0414    1.6033 N.4     1  UNL1        0.2308
      6 C           3.8512    1.2252    0.4942 C.3     1  UNL1        0.0704
      7 C           1.4231    0.3747    0.1125 C.3     1  UNL1        0.0224
      8 C           2.4643    0.9676    1.1076 C.3     1  UNL1       -0.0124
      9 C           4.7367    2.0144    1.4725 C.3     1  UNL1       -0.0237
     10 C           4.7153   -0.0215    0.2655 C.3     1  UNL1       -0.0237
     11 C           1.4573    1.2951   -1.1383 C.3     1  UNL1       -0.0181
     12 C           6.1616    1.8150    0.9589 C.3     1  UNL1       -0.0504
     13 C           6.1397    0.5192    0.1522 C.3     1  UNL1       -0.0504
     14 C           0.0115    0.4968    0.7385 C.3     1  UNL1       -0.0013
     15 C           2.8671    1.4887   -1.6863 C.3     1  UNL1        0.0492
     16 C           1.6501   -1.1244   -0.1669 C.ar    1  UNL1        0.0478
     17 C          -0.3430    1.9539    0.9995 C.3     1  UNL1       -0.0325
     18 C           1.9150   -1.5407   -1.4617 C.ar    1  UNL1       -0.0398
     19 C           2.1137   -2.8994   -1.6805 C.ar    1  UNL1       -0.0586
     20 C           1.7723   -3.2707    0.6437 C.ar    1  UNL1        0.0279
     21 C          -1.7056    1.3346    2.8758 C.3     1  UNL1        0.0021
     22 C           2.0424   -3.7875   -0.6130 C.ar    1  UNL1       -0.0436
     23 C          -1.3596   -0.1222    2.7185 C.ar    1  UNL1        0.0756
     24 C          -0.3359   -0.8347    3.3035 C.ar    1  UNL1        0.1353
     25 C          -0.3381   -2.2018    2.9021 C.ar    1  UNL1       -0.0124
     26 C          -1.3633   -2.4822    2.0260 C.ar    1  UNL1       -0.0203
     27 C           1.8731   -0.8286    4.1841 C.3     1  UNL1        0.0788
     28 H          -2.3511    1.6266    0.9702 H       1  UNL1        0.2017
     29 H          -1.8858    3.0238    1.7693 H       1  UNL1        0.2017
     30 H           2.0834    1.8968    1.4769 H       1  UNL1        0.0302
     31 H           2.6010    0.2383    1.8785 H       1  UNL1        0.0302
     32 H           4.6369    1.6291    2.4657 H       1  UNL1        0.0293
     33 H           4.4653    3.0484    1.5180 H       1  UNL1        0.0293
     34 H           4.4274   -0.5217   -0.6355 H       1  UNL1        0.0293
     35 H           4.6127   -0.7389    1.0527 H       1  UNL1        0.0293
     36 H           1.0594    2.2516   -0.8707 H       1  UNL1        0.0296
     37 H           0.8746    0.8247   -1.9025 H       1  UNL1        0.0296
     38 H           6.8441    1.7313    1.7787 H       1  UNL1        0.0266
     39 H           6.4830    2.6431    0.3623 H       1  UNL1        0.0266
     40 H           6.3834    0.7140   -0.8713 H       1  UNL1        0.0266
     41 H           6.8570   -0.1844    0.5201 H       1  UNL1        0.0266
     42 H          -0.0089   -0.0399    1.6640 H       1  UNL1        0.0326
     43 H          -0.7025    0.0887    0.0539 H       1  UNL1        0.0326
     44 H           3.2463    0.5437   -2.0149 H       1  UNL1        0.0560
     45 H           2.8212    2.1815   -2.5004 H       1  UNL1        0.0560
     46 H           0.3788    2.3813    1.6638 H       1  UNL1        0.0814
     47 H          -0.3422    2.4885    0.0726 H       1  UNL1        0.0814
     48 H           1.9632   -0.8638   -2.2391 H       1  UNL1        0.0636
     49 H           2.3131   -3.2473   -2.6314 H       1  UNL1        0.0619
     50 H           1.7197   -3.9288    1.4369 H       1  UNL1        0.0829
     51 H          -2.6905    1.4141    3.2863 H       1  UNL1        0.0873
     52 H          -0.9806    1.7798    3.5247 H       1  UNL1        0.0873
     53 H           2.1863   -4.7999   -0.7525 H       1  UNL1        0.0633
     54 H           0.3479   -2.8999    3.2293 H       1  UNL1        0.0659
     55 H          -1.5359   -3.4149    1.6196 H       1  UNL1        0.0694
     56 H           2.4636   -0.2922    4.8973 H       1  UNL1        0.0660
     57 H           2.3194   -0.7435    3.2154 H       1  UNL1        0.0660
     58 H           1.8242   -1.8599    4.4651 H       1  UNL1        0.0660
@<TRIPOS>UNITY_ATOM_ATTR
5 1
charge 1
@<TRIPOS>BOND
     1     1    23   ar
     2     1    26   ar
     3     2     6    1
     4     2    15    1
     5     3    24    1
     6     3    27    1
     7     4    16   ar
     8     4    20   ar
     9     5    17    1
    10     5    21    1
    11     5    28    1
    12     5    29    1
    13     6     8    1
    14     6     9    1
    15     6    10    1
    16     7     8    1
    17     7    11    1
    18     7    14    1
    19     7    16    1
    20     8    30    1
    21     8    31    1
    22     9    12    1
    23     9    32    1
    24     9    33    1
    25    10    13    1
    26    10    34    1
    27    10    35    1
    28    11    15    1
    29    11    36    1
    30    11    37    1
    31    12    13    1
    32    12    38    1
    33    12    39    1
    34    13    40    1
    35    13    41    1
    36    14    17    1
    37    14    42    1
    38    14    43    1
    39    15    44    1
    40    15    45    1
    41    16    18   ar
    42    17    46    1
    43    17    47    1
    44    18    19   ar
    45    18    48    1
    46    19    22   ar
    47    19    49    1
    48    20    22   ar
    49    20    50    1
    50    21    23    1
    51    21    51    1
    52    21    52    1
    53    22    53    1
    54    23    24   ar
    55    24    25   ar
    56    25    26   ar
    57    25    54    1
    58    26    55    1
    59    27    56    1
    60    27    57    1
    61    27    58    1
@<TRIPOS>MOLECULE
66555030
 58 61 0 0 0
SMALL
GASTEIGER

@<TRIPOS>ATOM
      1 S          -2.1864   -0.9580    3.4173 S.2     1  UNL1       -0.0926
      2 O           3.7389    2.0185   -0.6934 O.3     1  UNL1       -0.3733
      3 O          -1.2844   -4.4269    4.8641 O.3     1  UNL1       -0.4941
      4 N           2.6903   -1.7085    0.4687 N.ar    1  UNL1       -0.2593
      5 N           0.2477   -1.6591    1.8559 N.4     1  UNL1        0.2308
      6 C           3.8512    1.2252    0.4942 C.3     1  UNL1        0.0704
      7 C           1.4231    0.3747    0.1125 C.3     1  UNL1        0.0224
      8 C           2.4643    0.9676    1.1076 C.3     1  UNL1       -0.0124
      9 C           4.7367    2.0144    1.4725 C.3     1  UNL1       -0.0237
     10 C           4.7153   -0.0215    0.2655 C.3     1  UNL1       -0.0237
     11 C           1.4573    1.2951   -1.1383 C.3     1  UNL1       -0.0181
     12 C           6.1616    1.8150    0.9589 C.3     1  UNL1       -0.0504
     13 C           6.1397    0.5192    0.1522 C.3     1  UNL1       -0.0504
     14 C           0.0115    0.4968    0.7385 C.3     1  UNL1       -0.0013
     15 C           2.8671    1.4887   -1.6863 C.3     1  UNL1        0.0492
     16 C           1.6501   -1.1244   -0.1669 C.ar    1  UNL1        0.0478
     17 C          -0.0619   -0.2494    2.0632 C.3     1  UNL1       -0.0325
     18 C           0.7985   -1.7894   -1.0344 C.ar    1  UNL1       -0.0398
     19 C           1.0295   -3.1412   -1.2641 C.ar    1  UNL1       -0.0586
     20 C           2.8838   -3.0235    0.2205 C.ar    1  UNL1        0.0279
     21 C           0.1675   -2.3980    3.1079 C.3     1  UNL1        0.0021
     22 C           2.0898   -3.7774   -0.6284 C.ar    1  UNL1       -0.0436
     23 C          -1.2117   -2.3354    3.7085 C.ar    1  UNL1        0.0756
     24 C          -1.8514   -3.2632    4.5007 C.ar    1  UNL1        0.1353
     25 C          -3.1593   -2.8377    4.8731 C.ar    1  UNL1       -0.0124
     26 C          -3.4691   -1.6010    4.3517 C.ar    1  UNL1       -0.0203
     27 C          -0.3299   -5.0110    3.9668 C.3     1  UNL1        0.0788
     28 H           1.1919   -1.7417    1.4791 H       1  UNL1        0.2017
     29 H          -0.4317   -2.0495    1.2028 H       1  UNL1        0.2017
     30 H           2.0834    1.8968    1.4769 H       1  UNL1        0.0302
     31 H           2.6010    0.2383    1.8785 H       1  UNL1        0.0302
     32 H           4.6369    1.6291    2.4657 H       1  UNL1        0.0293
     33 H           4.4653    3.0484    1.5180 H       1  UNL1        0.0293
     34 H           4.4274   -0.5217   -0.6355 H       1  UNL1        0.0293
     35 H           4.6127   -0.7389    1.0527 H       1  UNL1        0.0293
     36 H           1.0594    2.2516   -0.8707 H       1  UNL1        0.0296
     37 H           0.8746    0.8247   -1.9025 H       1  UNL1        0.0296
     38 H           6.8441    1.7313    1.7787 H       1  UNL1        0.0266
     39 H           6.4830    2.6431    0.3623 H       1  UNL1        0.0266
     40 H           6.3834    0.7140   -0.8713 H       1  UNL1        0.0266
     41 H           6.8570   -0.1844    0.5201 H       1  UNL1        0.0266
     42 H          -0.7081    0.0833    0.0632 H       1  UNL1        0.0326
     43 H          -0.1948    1.5314    0.9172 H       1  UNL1        0.0326
     44 H           3.2463    0.5437   -2.0149 H       1  UNL1        0.0560
     45 H           2.8212    2.1815   -2.5004 H       1  UNL1        0.0560
     46 H           0.6443    0.1721    2.7476 H       1  UNL1        0.0814
     47 H          -1.0503   -0.1608    2.4635 H       1  UNL1        0.0814
     48 H           0.0175   -1.2970   -1.4954 H       1  UNL1        0.0636
     49 H           0.4163   -3.6701   -1.9039 H       1  UNL1        0.0619
     50 H           3.6714   -3.4946    0.6925 H       1  UNL1        0.0829
     51 H           0.8665   -1.9799    3.8019 H       1  UNL1        0.0873
     52 H           0.3943   -3.4234    2.9033 H       1  UNL1        0.0873
     53 H           2.2794   -4.7799   -0.7841 H       1  UNL1        0.0633
     54 H          -3.7993   -3.3911    5.4640 H       1  UNL1        0.0659
     55 H          -4.3684   -1.1189    4.5060 H       1  UNL1        0.0694
     56 H           0.0361   -5.9268    4.3820 H       1  UNL1        0.0660
     57 H           0.4857   -4.3334    3.8231 H       1  UNL1        0.0660
     58 H          -0.7994   -5.2086    3.0258 H       1  UNL1        0.0660
@<TRIPOS>UNITY_ATOM_ATTR
5 1
charge 1
@<TRIPOS>BOND
     1     1    23   ar
     2     1    26   ar
     3     2     6    1
     4     2    15    1
     5     3    24    1
     6     3    27    1
     7     4    16   ar
     8     4    20   ar
     9     5    17    1
    10     5    21    1
    11     5    28    1
    12     5    29    1
    13     6     8    1
    14     6     9    1
    15     6    10    1
    16     7     8    1
    17     7    11    1
    18     7    14    1
    19     7    16    1
    20     8    30    1
    21     8    31    1
    22     9    12    1
    23     9    32    1
    24     9    33    1
    25    10    13    1
    26    10    34    1
    27    10    35    1
    28    11    15    1
    29    11    36    1
    30    11    37    1
    31    12    13    1
    32    12    38    1
    33    12    39    1
    34    13    40    1
    35    13    41    1
    36    14    17    1
    37    14    42    1
    38    14    43    1
    39    15    44    1
    40    15    45    1
    41    16    18   ar
    42    17    46    1
    43    17    47    1
    44    18    19   ar
    45    18    48    1
    46    19    22   ar
    47    19    49    1
    48    20    22   ar
    49    20    50    1
    50    21    23    1
    51    21    51    1
    52    21    52    1
    53    22    53    1
    54    23    24   ar
    55    24    25   ar
    56    25    26   ar
    57    25    54    1
    58    26    55    1
    59    27    56    1
    60    27    57    1
    61    27    58    1
@<TRIPOS>MOLECULE
66555030
 58 61 0 0 0
SMALL
GASTEIGER

@<TRIPOS>ATOM
      1 S          -5.0987   -1.2279    1.3772 S.2     1  UNL1       -0.0926
      2 O           3.7389    2.0185   -0.6934 O.3     1  UNL1       -0.3733
      3 O          -3.3536    0.5552    4.3294 O.3     1  UNL1       -0.4941
      4 N           0.7973   -1.7152   -1.0334 N.ar    1  UNL1       -0.2593
      5 N          -1.4031   -0.1338    2.6236 N.4     1  UNL1        0.2308
      6 C           3.8512    1.2252    0.4942 C.3     1  UNL1        0.0704
      7 C           1.4231    0.3747    0.1125 C.3     1  UNL1        0.0224
      8 C           2.4643    0.9676    1.1076 C.3     1  UNL1       -0.0124
      9 C           4.7367    2.0144    1.4725 C.3     1  UNL1       -0.0237
     10 C           4.7153   -0.0215    0.2655 C.3     1  UNL1       -0.0237
     11 C           1.4573    1.2951   -1.1383 C.3     1  UNL1       -0.0181
     12 C           6.1616    1.8150    0.9589 C.3     1  UNL1       -0.0504
     13 C           6.1397    0.5192    0.1522 C.3     1  UNL1       -0.0504
     14 C           0.0115    0.4968    0.7385 C.3     1  UNL1       -0.0013
     15 C           2.8671    1.4887   -1.6863 C.3     1  UNL1        0.0492
     16 C           1.6501   -1.1244   -0.1669 C.ar    1  UNL1        0.0478
     17 C          -0.0619   -0.2494    2.0632 C.3     1  UNL1       -0.0325
     18 C           2.6925   -1.7823    0.4660 C.ar    1  UNL1       -0.0398
     19 C           2.8712   -3.1336    0.1916 C.ar    1  UNL1       -0.0586
     20 C           1.0020   -3.0297   -1.2753 C.ar    1  UNL1        0.0279
     21 C          -2.3926   -0.7130    1.7261 C.3     1  UNL1        0.0021
     22 C           2.0142   -3.7766   -0.6946 C.ar    1  UNL1       -0.0436
     23 C          -3.7886   -0.5899    2.2763 C.ar    1  UNL1        0.0756
     24 C          -4.2039   -0.0125    3.4562 C.ar    1  UNL1        0.1353
     25 C          -5.6163   -0.0955    3.6242 C.ar    1  UNL1       -0.0124
     26 C          -6.2267   -0.7327    2.5665 C.ar    1  UNL1       -0.0203
     27 C          -3.7065    0.5221    5.7193 C.3     1  UNL1        0.0788
     28 H          -1.6204    0.8521    2.7690 H       1  UNL1        0.2017
     29 H          -1.4310   -0.6390    3.5093 H       1  UNL1        0.2017
     30 H           2.0834    1.8968    1.4769 H       1  UNL1        0.0302
     31 H           2.6010    0.2383    1.8785 H       1  UNL1        0.0302
     32 H           4.6369    1.6291    2.4657 H       1  UNL1        0.0293
     33 H           4.4653    3.0484    1.5180 H       1  UNL1        0.0293
     34 H           4.4274   -0.5217   -0.6355 H       1  UNL1        0.0293
     35 H           4.6127   -0.7389    1.0527 H       1  UNL1        0.0293
     36 H           1.0594    2.2516   -0.8707 H       1  UNL1        0.0296
     37 H           0.8746    0.8247   -1.9025 H       1  UNL1        0.0296
     38 H           6.8441    1.7313    1.7787 H       1  UNL1        0.0266
     39 H           6.4830    2.6431    0.3623 H       1  UNL1        0.0266
     40 H           6.3834    0.7140   -0.8713 H       1  UNL1        0.0266
     41 H           6.8570   -0.1844    0.5201 H       1  UNL1        0.0266
     42 H          -0.7081    0.0833    0.0632 H       1  UNL1        0.0326
     43 H          -0.1948    1.5314    0.9172 H       1  UNL1        0.0326
     44 H           3.2463    0.5437   -2.0149 H       1  UNL1        0.0560
     45 H           2.8212    2.1815   -2.5004 H       1  UNL1        0.0560
     46 H           0.1675   -1.2821    1.9020 H       1  UNL1        0.0814
     47 H           0.6435    0.1751    2.7466 H       1  UNL1        0.0814
     48 H           3.3166   -1.2850    1.1204 H       1  UNL1        0.0636
     49 H           3.6368   -3.6573    0.6439 H       1  UNL1        0.0619
     50 H           0.3649   -3.5059   -1.9329 H       1  UNL1        0.0829
     51 H          -2.1666   -1.7492    1.5841 H       1  UNL1        0.0873
     52 H          -2.3528   -0.1795    0.7994 H       1  UNL1        0.0873
     53 H           2.1285   -4.7787   -0.9131 H       1  UNL1        0.0633
     54 H          -6.1227    0.2779    4.4422 H       1  UNL1        0.0659
     55 H          -7.2439   -0.8929    2.4988 H       1  UNL1        0.0694
     56 H          -2.9441    1.0069    6.2926 H       1  UNL1        0.0660
     57 H          -3.8011   -0.4946    6.0392 H       1  UNL1        0.0660
     58 H          -4.6377    1.0293    5.8630 H       1  UNL1        0.0660
@<TRIPOS>UNITY_ATOM_ATTR
5 1
charge 1
@<TRIPOS>BOND
     1     1    23   ar
     2     1    26   ar
     3     2     6    1
     4     2    15    1
     5     3    24    1
     6     3    27    1
     7     4    16   ar
     8     4    20   ar
     9     5    17    1
    10     5    21    1
    11     5    28    1
    12     5    29    1
    13     6     8    1
    14     6     9    1
    15     6    10    1
    16     7     8    1
    17     7    11    1
    18     7    14    1
    19     7    16    1
    20     8    30    1
    21     8    31    1
    22     9    12    1
    23     9    32    1
    24     9    33    1
    25    10    13    1
    26    10    34    1
    27    10    35    1
    28    11    15    1
    29    11    36    1
    30    11    37    1
    31    12    13    1
    32    12    38    1
    33    12    39    1
    34    13    40    1
    35    13    41    1
    36    14    17    1
    37    14    42    1
    38    14    43    1
    39    15    44    1
    40    15    45    1
    41    16    18   ar
    42    17    46    1
    43    17    47    1
    44    18    19   ar
    45    18    48    1
    46    19    22   ar
    47    19    49    1
    48    20    22   ar
    49    20    50    1
    50    21    23    1
    51    21    51    1
    52    21    52    1
    53    22    53    1
    54    23    24   ar
    55    24    25   ar
    56    25    26   ar
    57    25    54    1
    58    26    55    1
    59    27    56    1
    60    27    57    1
    61    27    58    1
@<TRIPOS>MOLECULE
66555030
 58 61 0 0 0
SMALL
GASTEIGER

@<TRIPOS>ATOM
      1 S          -3.5603   -1.9652    0.5264 S.2     1  UNL1       -0.0926
      2 O           3.7389    2.0185   -0.6934 O.3     1  UNL1       -0.3733
      3 O          -1.5317   -2.3631    3.7925 O.3     1  UNL1       -0.4941
      4 N           1.8907   -1.4719   -1.4509 N.ar    1  UNL1       -0.2593
      5 N          -0.7778   -1.4999   -0.4201 N.4     1  UNL1        0.2308
      6 C           3.8512    1.2252    0.4942 C.3     1  UNL1        0.0704
      7 C           1.4231    0.3747    0.1125 C.3     1  UNL1        0.0224
      8 C           2.4643    0.9676    1.1076 C.3     1  UNL1       -0.0124
      9 C           4.7367    2.0144    1.4725 C.3     1  UNL1       -0.0237
     10 C           4.7153   -0.0215    0.2655 C.3     1  UNL1       -0.0237
     11 C           1.4573    1.2951   -1.1383 C.3     1  UNL1       -0.0181
     12 C           6.1616    1.8150    0.9589 C.3     1  UNL1       -0.0504
     13 C           6.1397    0.5192    0.1522 C.3     1  UNL1       -0.0504
     14 C           0.0115    0.4968    0.7385 C.3     1  UNL1       -0.0013
     15 C           2.8671    1.4887   -1.6863 C.3     1  UNL1        0.0492
     16 C           1.6501   -1.1244   -0.1669 C.ar    1  UNL1        0.0478
     17 C          -1.0463   -0.0856   -0.1884 C.3     1  UNL1       -0.0325
     18 C           1.5996   -2.0257    0.8843 C.ar    1  UNL1       -0.0398
     19 C           1.8099   -3.3703    0.5992 C.ar    1  UNL1       -0.0586
     20 C           2.0900   -2.7877   -1.6896 C.ar    1  UNL1        0.0279
     21 C          -0.8145   -2.2469    0.8292 C.3     1  UNL1        0.0021
     22 C           2.0605   -3.7667   -0.7097 C.ar    1  UNL1       -0.0436
     23 C          -2.1618   -2.1593    1.4953 C.ar    1  UNL1        0.0756
     24 C          -2.4665   -2.2137    2.8378 C.ar    1  UNL1        0.1353
     25 C          -3.8666   -2.0949    3.0737 C.ar    1  UNL1       -0.0124
     26 C          -4.5786   -1.9539    1.9030 C.ar    1  UNL1       -0.0203
     27 C          -1.9754   -2.4194    5.1554 C.3     1  UNL1        0.0788
     28 H           0.1454   -1.5998   -0.8421 H       1  UNL1        0.2017
     29 H          -1.4959   -1.8703   -1.0427 H       1  UNL1        0.2017
     30 H           2.0834    1.8968    1.4769 H       1  UNL1        0.0302
     31 H           2.6010    0.2383    1.8785 H       1  UNL1        0.0302
     32 H           4.6369    1.6291    2.4657 H       1  UNL1        0.0293
     33 H           4.4653    3.0484    1.5180 H       1  UNL1        0.0293
     34 H           4.4274   -0.5217   -0.6355 H       1  UNL1        0.0293
     35 H           4.6127   -0.7389    1.0527 H       1  UNL1        0.0293
     36 H           1.0594    2.2516   -0.8707 H       1  UNL1        0.0296
     37 H           0.8746    0.8247   -1.9025 H       1  UNL1        0.0296
     38 H           6.8441    1.7313    1.7787 H       1  UNL1        0.0266
     39 H           6.4830    2.6431    0.3623 H       1  UNL1        0.0266
     40 H           6.3834    0.7140   -0.8713 H       1  UNL1        0.0266
     41 H           6.8570   -0.1844    0.5201 H       1  UNL1        0.0266
     42 H          -0.2061    1.5298    0.9131 H       1  UNL1        0.0326
     43 H          -0.0026   -0.0489    1.6588 H       1  UNL1        0.0326
     44 H           3.2463    0.5437   -2.0149 H       1  UNL1        0.0560
     45 H           2.8212    2.1815   -2.5004 H       1  UNL1        0.0560
     46 H          -2.0110    0.0235    0.2613 H       1  UNL1        0.0814
     47 H          -1.0219    0.4356   -1.1225 H       1  UNL1        0.0814
     48 H           1.4119   -1.7091    1.8484 H       1  UNL1        0.0636
     49 H           1.7800   -4.0712    1.3561 H       1  UNL1        0.0619
     50 H           2.2755   -3.0808   -2.6615 H       1  UNL1        0.0829
     51 H          -0.0743   -1.8495    1.4918 H       1  UNL1        0.0873
     52 H          -0.6203   -3.2753    0.6068 H       1  UNL1        0.0873
     53 H           2.2196   -4.7591   -0.9440 H       1  UNL1        0.0633
     54 H          -4.2969   -2.1123    4.0116 H       1  UNL1        0.0659
     55 H          -5.6047   -1.8533    1.8605 H       1  UNL1        0.0694
     56 H          -1.1304   -2.5392    5.8009 H       1  UNL1        0.0660
     57 H          -2.6399   -3.2488    5.2801 H       1  UNL1        0.0660
     58 H          -2.4868   -1.5124    5.4018 H       1  UNL1        0.0660
@<TRIPOS>UNITY_ATOM_ATTR
5 1
charge 1
@<TRIPOS>BOND
     1     1    23   ar
     2     1    26   ar
     3     2     6    1
     4     2    15    1
     5     3    24    1
     6     3    27    1
     7     4    16   ar
     8     4    20   ar
     9     5    17    1
    10     5    21    1
    11     5    28    1
    12     5    29    1
    13     6     8    1
    14     6     9    1
    15     6    10    1
    16     7     8    1
    17     7    11    1
    18     7    14    1
    19     7    16    1
    20     8    30    1
    21     8    31    1
    22     9    12    1
    23     9    32    1
    24     9    33    1
    25    10    13    1
    26    10    34    1
    27    10    35    1
    28    11    15    1
    29    11    36    1
    30    11    37    1
    31    12    13    1
    32    12    38    1
    33    12    39    1
    34    13    40    1
    35    13    41    1
    36    14    17    1
    37    14    42    1
    38    14    43    1
    39    15    44    1
    40    15    45    1
    41    16    18   ar
    42    17    46    1
    43    17    47    1
    44    18    19   ar
    45    18    48    1
    46    19    22   ar
    47    19    49    1
    48    20    22   ar
    49    20    50    1
    50    21    23    1
    51    21    51    1
    52    21    52    1
    53    22    53    1
    54    23    24   ar
    55    24    25   ar
    56    25    26   ar
    57    25    54    1
    58    26    55    1
    59    27    56    1
    60    27    57    1
    61    27    58    1
@<TRIPOS>MOLECULE
66555030
 58 61 0 0 0
SMALL
GASTEIGER

@<TRIPOS>ATOM
      1 S          -0.6079   -2.5911    0.9540 S.2     1  UNL1       -0.0926
      2 O           3.7389    2.0185   -0.6934 O.3     1  UNL1       -0.3733
      3 O          -4.1798   -3.0368    2.3622 O.3     1  UNL1       -0.4941
      4 N           2.2078   -1.8488    0.8289 N.ar    1  UNL1       -0.2593
      5 N          -2.3661    0.0561    0.4148 N.4     1  UNL1        0.2308
      6 C           3.8512    1.2252    0.4942 C.3     1  UNL1        0.0704
      7 C           1.4231    0.3747    0.1125 C.3     1  UNL1        0.0224
      8 C           2.4643    0.9676    1.1076 C.3     1  UNL1       -0.0124
      9 C           4.7367    2.0144    1.4725 C.3     1  UNL1       -0.0237
     10 C           4.7153   -0.0215    0.2655 C.3     1  UNL1       -0.0237
     11 C           1.4573    1.2951   -1.1383 C.3     1  UNL1       -0.0181
     12 C           6.1616    1.8150    0.9589 C.3     1  UNL1       -0.0504
     13 C           6.1397    0.5192    0.1522 C.3     1  UNL1       -0.0504
     14 C           0.0115    0.4968    0.7385 C.3     1  UNL1       -0.0013
     15 C           2.8671    1.4887   -1.6863 C.3     1  UNL1        0.0492
     16 C           1.6501   -1.1244   -0.1669 C.ar    1  UNL1        0.0478
     17 C          -1.0463   -0.0856   -0.1884 C.3     1  UNL1       -0.0325
     18 C           1.2807   -1.6492   -1.3950 C.ar    1  UNL1       -0.0398
     19 C           1.4975   -3.0049   -1.6150 C.ar    1  UNL1       -0.0586
     20 C           2.4034   -3.1629    0.5784 C.ar    1  UNL1        0.0279
     21 C          -2.4270   -0.6295    1.6979 C.3     1  UNL1        0.0021
     22 C           2.0690   -3.7832   -0.6145 C.ar    1  UNL1       -0.0436
     23 C          -2.1310   -2.0995    1.5627 C.ar    1  UNL1        0.0756
     24 C          -2.9369   -3.1742    1.8683 C.ar    1  UNL1        0.1353
     25 C          -2.2950   -4.4176    1.5995 C.ar    1  UNL1       -0.0124
     26 C          -1.0235   -4.2458    1.0985 C.ar    1  UNL1       -0.0203
     27 C          -4.6682   -4.0678    3.2317 C.3     1  UNL1        0.0788
     28 H          -3.0643   -0.3447   -0.2115 H       1  UNL1        0.2017
     29 H          -2.5508    1.0478    0.5659 H       1  UNL1        0.2017
     30 H           2.0834    1.8968    1.4769 H       1  UNL1        0.0302
     31 H           2.6010    0.2383    1.8785 H       1  UNL1        0.0302
     32 H           4.6369    1.6291    2.4657 H       1  UNL1        0.0293
     33 H           4.4653    3.0484    1.5180 H       1  UNL1        0.0293
     34 H           4.4274   -0.5217   -0.6355 H       1  UNL1        0.0293
     35 H           4.6127   -0.7389    1.0527 H       1  UNL1        0.0293
     36 H           1.0594    2.2516   -0.8707 H       1  UNL1        0.0296
     37 H           0.8746    0.8247   -1.9025 H       1  UNL1        0.0296
     38 H           6.8441    1.7313    1.7787 H       1  UNL1        0.0266
     39 H           6.4830    2.6431    0.3623 H       1  UNL1        0.0266
     40 H           6.3834    0.7140   -0.8713 H       1  UNL1        0.0266
     41 H           6.8570   -0.1844    0.5201 H       1  UNL1        0.0266
     42 H          -0.2061    1.5298    0.9131 H       1  UNL1        0.0326
     43 H          -0.0026   -0.0489    1.6588 H       1  UNL1        0.0326
     44 H           3.2463    0.5437   -2.0149 H       1  UNL1        0.0560
     45 H           2.8212    2.1815   -2.5004 H       1  UNL1        0.0560
     46 H          -1.0252    0.4356   -1.1226 H       1  UNL1        0.0814
     47 H          -0.8415   -1.1235   -0.3488 H       1  UNL1        0.0814
     48 H           0.8580   -1.0527   -2.1233 H       1  UNL1        0.0636
     49 H           1.2353   -3.4318   -2.5172 H       1  UNL1        0.0619
     50 H           2.8281   -3.7395    1.3215 H       1  UNL1        0.0829
     51 H          -3.4081   -0.5102    2.1078 H       1  UNL1        0.0873
     52 H          -1.6865   -0.1994    2.3395 H       1  UNL1        0.0873
     53 H           2.2387   -4.7913   -0.7560 H       1  UNL1        0.0633
     54 H          -2.7315   -5.3387    1.7611 H       1  UNL1        0.0659
     55 H          -0.3953   -5.0230    0.8407 H       1  UNL1        0.0694
     56 H          -5.6625   -3.8280    3.5460 H       1  UNL1        0.0660
     57 H          -4.0316   -4.1429    4.0885 H       1  UNL1        0.0660
     58 H          -4.6747   -5.0016    2.7093 H       1  UNL1        0.0660
@<TRIPOS>UNITY_ATOM_ATTR
5 1
charge 1
@<TRIPOS>BOND
     1     1    23   ar
     2     1    26   ar
     3     2     6    1
     4     2    15    1
     5     3    24    1
     6     3    27    1
     7     4    16   ar
     8     4    20   ar
     9     5    17    1
    10     5    21    1
    11     5    28    1
    12     5    29    1
    13     6     8    1
    14     6     9    1
    15     6    10    1
    16     7     8    1
    17     7    11    1
    18     7    14    1
    19     7    16    1
    20     8    30    1
    21     8    31    1
    22     9    12    1
    23     9    32    1
    24     9    33    1
    25    10    13    1
    26    10    34    1
    27    10    35    1
    28    11    15    1
    29    11    36    1
    30    11    37    1
    31    12    13    1
    32    12    38    1
    33    12    39    1
    34    13    40    1
    35    13    41    1
    36    14    17    1
    37    14    42    1
    38    14    43    1
    39    15    44    1
    40    15    45    1
    41    16    18   ar
    42    17    46    1
    43    17    47    1
    44    18    19   ar
    45    18    48    1
    46    19    22   ar
    47    19    49    1
    48    20    22   ar
    49    20    50    1
    50    21    23    1
    51    21    51    1
    52    21    52    1
    53    22    53    1
    54    23    24   ar
    55    24    25   ar
    56    25    26   ar
    57    25    54    1
    58    26    55    1
    59    27    56    1
    60    27    57    1
    61    27    58    1
@<TRIPOS>MOLECULE
66555030
 58 61 0 0 0
SMALL
GASTEIGER

@<TRIPOS>ATOM
      1 S          -4.4791   -1.8056   -1.8562 S.2     1  UNL1       -0.0926
      2 O           3.7389    2.0185   -0.6934 O.3     1  UNL1       -0.3733
      3 O          -2.7221   -2.0305    1.5794 O.3     1  UNL1       -0.4941
      4 N           1.5734   -1.9572    0.8951 N.ar    1  UNL1       -0.2593
      5 N          -0.7778   -1.4999   -0.4201 N.4     1  UNL1        0.2308
      6 C           3.8512    1.2252    0.4942 C.3     1  UNL1        0.0704
      7 C           1.4231    0.3747    0.1125 C.3     1  UNL1        0.0224
      8 C           2.4643    0.9676    1.1076 C.3     1  UNL1       -0.0124
      9 C           4.7367    2.0144    1.4725 C.3     1  UNL1       -0.0237
     10 C           4.7153   -0.0215    0.2655 C.3     1  UNL1       -0.0237
     11 C           1.4573    1.2951   -1.1383 C.3     1  UNL1       -0.0181
     12 C           6.1616    1.8150    0.9589 C.3     1  UNL1       -0.0504
     13 C           6.1397    0.5192    0.1522 C.3     1  UNL1       -0.0504
     14 C           0.0115    0.4968    0.7385 C.3     1  UNL1       -0.0013
     15 C           2.8671    1.4887   -1.6863 C.3     1  UNL1        0.0492
     16 C           1.6501   -1.1244   -0.1669 C.ar    1  UNL1        0.0478
     17 C          -1.0463   -0.0856   -0.1884 C.3     1  UNL1       -0.0325
     18 C           1.9150   -1.5407   -1.4617 C.ar    1  UNL1       -0.0398
     19 C           2.1137   -2.8994   -1.6805 C.ar    1  UNL1       -0.0586
     20 C           1.7723   -3.2707    0.6437 C.ar    1  UNL1        0.0279
     21 C          -1.7684   -2.0760   -1.3184 C.3     1  UNL1        0.0021
     22 C           2.0424   -3.7875   -0.6130 C.ar    1  UNL1       -0.0436
     23 C          -3.1643   -1.9499   -0.7687 C.ar    1  UNL1        0.0756
     24 C          -3.5763   -1.9311    0.5458 C.ar    1  UNL1        0.1353
     25 C          -4.9900   -1.7968    0.6614 C.ar    1  UNL1       -0.0124
     26 C          -5.6046   -1.7178   -0.5688 C.ar    1  UNL1       -0.0203
     27 C          -3.2743   -2.0123    2.9031 C.3     1  UNL1        0.0788
     28 H          -0.8065   -1.9956    0.4708 H       1  UNL1        0.2017
     29 H           0.1432   -1.5909   -0.8488 H       1  UNL1        0.2017
     30 H           2.0834    1.8968    1.4769 H       1  UNL1        0.0302
     31 H           2.6010    0.2383    1.8785 H       1  UNL1        0.0302
     32 H           4.6369    1.6291    2.4657 H       1  UNL1        0.0293
     33 H           4.4653    3.0484    1.5180 H       1  UNL1        0.0293
     34 H           4.4274   -0.5217   -0.6355 H       1  UNL1        0.0293
     35 H           4.6127   -0.7389    1.0527 H       1  UNL1        0.0293
     36 H           1.0594    2.2516   -0.8707 H       1  UNL1        0.0296
     37 H           0.8746    0.8247   -1.9025 H       1  UNL1        0.0296
     38 H           6.8441    1.7313    1.7787 H       1  UNL1        0.0266
     39 H           6.4830    2.6431    0.3623 H       1  UNL1        0.0266
     40 H           6.3834    0.7140   -0.8713 H       1  UNL1        0.0266
     41 H           6.8570   -0.1844    0.5201 H       1  UNL1        0.0266
     42 H          -0.2061    1.5298    0.9131 H       1  UNL1        0.0326
     43 H          -0.0026   -0.0489    1.6588 H       1  UNL1        0.0326
     44 H           3.2463    0.5437   -2.0149 H       1  UNL1        0.0560
     45 H           2.8212    2.1815   -2.5004 H       1  UNL1        0.0560
     46 H          -2.0110    0.0235    0.2613 H       1  UNL1        0.0814
     47 H          -1.0219    0.4356   -1.1225 H       1  UNL1        0.0814
     48 H           1.9632   -0.8638   -2.2391 H       1  UNL1        0.0636
     49 H           2.3131   -3.2473   -2.6314 H       1  UNL1        0.0619
     50 H           1.7197   -3.9288    1.4369 H       1  UNL1        0.0829
     51 H          -1.5449   -3.1127   -1.4610 H       1  UNL1        0.0873
     52 H          -1.7269   -1.5420   -2.2447 H       1  UNL1        0.0873
     53 H           2.1863   -4.7999   -0.7525 H       1  UNL1        0.0633
     54 H          -5.4944   -1.7627    1.5612 H       1  UNL1        0.0659
     55 H          -6.6234   -1.6176   -0.6992 H       1  UNL1        0.0694
     56 H          -2.4847   -2.0987    3.6202 H       1  UNL1        0.0660
     57 H          -3.9519   -2.8323    3.0183 H       1  UNL1        0.0660
     58 H          -3.7980   -1.0922    3.0585 H       1  UNL1        0.0660
@<TRIPOS>UNITY_ATOM_ATTR
5 1
charge 1
@<TRIPOS>BOND
     1     1    23   ar
     2     1    26   ar
     3     2     6    1
     4     2    15    1
     5     3    24    1
     6     3    27    1
     7     4    16   ar
     8     4    20   ar
     9     5    17    1
    10     5    21    1
    11     5    28    1
    12     5    29    1
    13     6     8    1
    14     6     9    1
    15     6    10    1
    16     7     8    1
    17     7    11    1
    18     7    14    1
    19     7    16    1
    20     8    30    1
    21     8    31    1
    22     9    12    1
    23     9    32    1
    24     9    33    1
    25    10    13    1
    26    10    34    1
    27    10    35    1
    28    11    15    1
    29    11    36    1
    30    11    37    1
    31    12    13    1
    32    12    38    1
    33    12    39    1
    34    13    40    1
    35    13    41    1
    36    14    17    1
    37    14    42    1
    38    14    43    1
    39    15    44    1
    40    15    45    1
    41    16    18   ar
    42    17    46    1
    43    17    47    1
    44    18    19   ar
    45    18    48    1
    46    19    22   ar
    47    19    49    1
    48    20    22   ar
    49    20    50    1
    50    21    23    1
    51    21    51    1
    52    21    52    1
    53    22    53    1
    54    23    24   ar
    55    24    25   ar
    56    25    26   ar
    57    25    54    1
    58    26    55    1
    59    27    56    1
    60    27    57    1
    61    27    58    1
@<TRIPOS>MOLECULE
66555030
 58 61 0 0 0
SMALL
GASTEIGER

@<TRIPOS>ATOM
      1 S          -4.6987   -2.0109    2.5671 S.2     1  UNL1       -0.0926
      2 O           3.7389    2.0185   -0.6934 O.3     1  UNL1       -0.3733
      3 O          -3.9820    1.7858    2.4600 O.3     1  UNL1       -0.4941
      4 N           2.9239   -1.5697   -0.0867 N.ar    1  UNL1       -0.2593
      5 N          -1.4031   -0.1338    2.6236 N.4     1  UNL1        0.2308
      6 C           3.8512    1.2252    0.4942 C.3     1  UNL1        0.0704
      7 C           1.4231    0.3747    0.1125 C.3     1  UNL1        0.0224
      8 C           2.4643    0.9676    1.1076 C.3     1  UNL1       -0.0124
      9 C           4.7367    2.0144    1.4725 C.3     1  UNL1       -0.0237
     10 C           4.7153   -0.0215    0.2655 C.3     1  UNL1       -0.0237
     11 C           1.4573    1.2951   -1.1383 C.3     1  UNL1       -0.0181
     12 C           6.1616    1.8150    0.9589 C.3     1  UNL1       -0.0504
     13 C           6.1397    0.5192    0.1522 C.3     1  UNL1       -0.0504
     14 C           0.0115    0.4968    0.7385 C.3     1  UNL1       -0.0013
     15 C           2.8671    1.4887   -1.6863 C.3     1  UNL1        0.0492
     16 C           1.6501   -1.1244   -0.1669 C.ar    1  UNL1        0.0478
     17 C          -0.0619   -0.2494    2.0632 C.3     1  UNL1       -0.0325
     18 C           0.5654   -1.9283   -0.4789 C.ar    1  UNL1       -0.0398
     19 C           0.8036   -3.2760   -0.7241 C.ar    1  UNL1       -0.0586
     20 C           3.1166   -2.8853   -0.3317 C.ar    1  UNL1        0.0279
     21 C          -2.3926   -0.7130    1.7261 C.3     1  UNL1        0.0021
     22 C           2.1007   -3.7716   -0.6510 C.ar    1  UNL1       -0.0436
     23 C          -3.7886   -0.5899    2.2763 C.ar    1  UNL1        0.0756
     24 C          -4.4910    0.5495    2.6021 C.ar    1  UNL1        0.1353
     25 C          -5.7934    0.2518    3.0973 C.ar    1  UNL1       -0.0124
     26 C          -6.0369   -1.1035    3.1309 C.ar    1  UNL1       -0.0203
     27 C          -4.4319    2.7994    3.3699 C.3     1  UNL1        0.0788
     28 H          -1.6204    0.8521    2.7690 H       1  UNL1        0.2017
     29 H          -1.4310   -0.6390    3.5093 H       1  UNL1        0.2017
     30 H           2.0834    1.8968    1.4769 H       1  UNL1        0.0302
     31 H           2.6010    0.2383    1.8785 H       1  UNL1        0.0302
     32 H           4.6369    1.6291    2.4657 H       1  UNL1        0.0293
     33 H           4.4653    3.0484    1.5180 H       1  UNL1        0.0293
     34 H           4.4274   -0.5217   -0.6355 H       1  UNL1        0.0293
     35 H           4.6127   -0.7389    1.0527 H       1  UNL1        0.0293
     36 H           1.0594    2.2516   -0.8707 H       1  UNL1        0.0296
     37 H           0.8746    0.8247   -1.9025 H       1  UNL1        0.0296
     38 H           6.8441    1.7313    1.7787 H       1  UNL1        0.0266
     39 H           6.4830    2.6431    0.3623 H       1  UNL1        0.0266
     40 H           6.3834    0.7140   -0.8713 H       1  UNL1        0.0266
     41 H           6.8570   -0.1844    0.5201 H       1  UNL1        0.0266
     42 H          -0.7081    0.0833    0.0632 H       1  UNL1        0.0326
     43 H          -0.1948    1.5314    0.9172 H       1  UNL1        0.0326
     44 H           3.2463    0.5437   -2.0149 H       1  UNL1        0.0560
     45 H           2.8212    2.1815   -2.5004 H       1  UNL1        0.0560
     46 H           0.1675   -1.2821    1.9020 H       1  UNL1        0.0814
     47 H           0.6435    0.1751    2.7466 H       1  UNL1        0.0814
     48 H          -0.3890   -1.5389   -0.5277 H       1  UNL1        0.0636
     49 H           0.0208   -3.9060   -0.9595 H       1  UNL1        0.0619
     50 H           4.0798   -3.2519   -0.2776 H       1  UNL1        0.0829
     51 H          -2.1666   -1.7492    1.5841 H       1  UNL1        0.0873
     52 H          -2.3528   -0.1795    0.7994 H       1  UNL1        0.0873
     53 H           2.3003   -4.7684   -0.8289 H       1  UNL1        0.0633
     54 H          -6.4744    0.9675    3.3958 H       1  UNL1        0.0659
     55 H          -6.9216   -1.5227    3.4574 H       1  UNL1        0.0694
     56 H          -3.9469    3.7253    3.1406 H       1  UNL1        0.0660
     57 H          -4.1933    2.5104    4.3721 H       1  UNL1        0.0660
     58 H          -5.4911    2.9187    3.2756 H       1  UNL1        0.0660
@<TRIPOS>UNITY_ATOM_ATTR
5 1
charge 1
@<TRIPOS>BOND
     1     1    23   ar
     2     1    26   ar
     3     2     6    1
     4     2    15    1
     5     3    24    1
     6     3    27    1
     7     4    16   ar
     8     4    20   ar
     9     5    17    1
    10     5    21    1
    11     5    28    1
    12     5    29    1
    13     6     8    1
    14     6     9    1
    15     6    10    1
    16     7     8    1
    17     7    11    1
    18     7    14    1
    19     7    16    1
    20     8    30    1
    21     8    31    1
    22     9    12    1
    23     9    32    1
    24     9    33    1
    25    10    13    1
    26    10    34    1
    27    10    35    1
    28    11    15    1
    29    11    36    1
    30    11    37    1
    31    12    13    1
    32    12    38    1
    33    12    39    1
    34    13    40    1
    35    13    41    1
    36    14    17    1
    37    14    42    1
    38    14    43    1
    39    15    44    1
    40    15    45    1
    41    16    18   ar
    42    17    46    1
    43    17    47    1
    44    18    19   ar
    45    18    48    1
    46    19    22   ar
    47    19    49    1
    48    20    22   ar
    49    20    50    1
    50    21    23    1
    51    21    51    1
    52    21    52    1
    53    22    53    1
    54    23    24   ar
    55    24    25   ar
    56    25    26   ar
    57    25    54    1
    58    26    55    1
    59    27    56    1
    60    27    57    1
    61    27    58    1
@<TRIPOS>MOLECULE
66555030
 58 61 0 0 0
SMALL
GASTEIGER

@<TRIPOS>ATOM
      1 S           0.9234    0.4520    4.3840 S.2     1  UNL1       -0.0926
      2 O           3.7389    2.0185   -0.6934 O.3     1  UNL1       -0.3733
      3 O          -1.7388   -0.6982    6.9395 O.3     1  UNL1       -0.4941
      4 N           2.6903   -1.7085    0.4687 N.ar    1  UNL1       -0.2593
      5 N          -1.4031   -0.1338    2.6236 N.4     1  UNL1        0.2308
      6 C           3.8512    1.2252    0.4942 C.3     1  UNL1        0.0704
      7 C           1.4231    0.3747    0.1125 C.3     1  UNL1        0.0224
      8 C           2.4643    0.9676    1.1076 C.3     1  UNL1       -0.0124
      9 C           4.7367    2.0144    1.4725 C.3     1  UNL1       -0.0237
     10 C           4.7153   -0.0215    0.2655 C.3     1  UNL1       -0.0237
     11 C           1.4573    1.2951   -1.1383 C.3     1  UNL1       -0.0181
     12 C           6.1616    1.8150    0.9589 C.3     1  UNL1       -0.0504
     13 C           6.1397    0.5192    0.1522 C.3     1  UNL1       -0.0504
     14 C           0.0115    0.4968    0.7385 C.3     1  UNL1       -0.0013
     15 C           2.8671    1.4887   -1.6863 C.3     1  UNL1        0.0492
     16 C           1.6501   -1.1244   -0.1669 C.ar    1  UNL1        0.0478
     17 C          -0.0619   -0.2494    2.0632 C.3     1  UNL1       -0.0325
     18 C           0.7985   -1.7894   -1.0344 C.ar    1  UNL1       -0.0398
     19 C           1.0295   -3.1412   -1.2641 C.ar    1  UNL1       -0.0586
     20 C           2.8838   -3.0235    0.2205 C.ar    1  UNL1        0.0279
     21 C          -1.4936   -0.8268    3.9010 C.3     1  UNL1        0.0021
     22 C           2.0898   -3.7774   -0.6284 C.ar    1  UNL1       -0.0436
     23 C          -0.5422   -0.2544    4.9179 C.ar    1  UNL1        0.0756
     24 C          -0.6704   -0.2056    6.2887 C.ar    1  UNL1        0.1353
     25 C           0.4494    0.4205    6.9086 C.ar    1  UNL1       -0.0124
     26 C           1.3906    0.8260    5.9883 C.ar    1  UNL1       -0.0203
     27 C          -1.5342   -1.2078    8.2646 C.3     1  UNL1        0.0788
     28 H          -2.0733   -0.5436    1.9730 H       1  UNL1        0.2017
     29 H          -1.6099    0.8537    2.7730 H       1  UNL1        0.2017
     30 H           2.0834    1.8968    1.4769 H       1  UNL1        0.0302
     31 H           2.6010    0.2383    1.8785 H       1  UNL1        0.0302
     32 H           4.6369    1.6291    2.4657 H       1  UNL1        0.0293
     33 H           4.4653    3.0484    1.5180 H       1  UNL1        0.0293
     34 H           4.4274   -0.5217   -0.6355 H       1  UNL1        0.0293
     35 H           4.6127   -0.7389    1.0527 H       1  UNL1        0.0293
     36 H           1.0594    2.2516   -0.8707 H       1  UNL1        0.0296
     37 H           0.8746    0.8247   -1.9025 H       1  UNL1        0.0296
     38 H           6.8441    1.7313    1.7787 H       1  UNL1        0.0266
     39 H           6.4830    2.6431    0.3623 H       1  UNL1        0.0266
     40 H           6.3834    0.7140   -0.8713 H       1  UNL1        0.0266
     41 H           6.8570   -0.1844    0.5201 H       1  UNL1        0.0266
     42 H          -0.7081    0.0833    0.0632 H       1  UNL1        0.0326
     43 H          -0.1948    1.5314    0.9172 H       1  UNL1        0.0326
     44 H           3.2463    0.5437   -2.0149 H       1  UNL1        0.0560
     45 H           2.8212    2.1815   -2.5004 H       1  UNL1        0.0560
     46 H           0.1675   -1.2821    1.9020 H       1  UNL1        0.0814
     47 H           0.6435    0.1751    2.7466 H       1  UNL1        0.0814
     48 H           0.0175   -1.2970   -1.4954 H       1  UNL1        0.0636
     49 H           0.4163   -3.6701   -1.9039 H       1  UNL1        0.0619
     50 H           3.6714   -3.4946    0.6925 H       1  UNL1        0.0829
     51 H          -1.2598   -1.8601    3.7514 H       1  UNL1        0.0873
     52 H          -2.4894   -0.7070    4.2737 H       1  UNL1        0.0873
     53 H           2.2794   -4.7799   -0.7841 H       1  UNL1        0.0633
     54 H           0.5442    0.5545    7.9275 H       1  UNL1        0.0659
     55 H           2.2734    1.2994    6.2364 H       1  UNL1        0.0694
     56 H          -2.4637   -1.5641    8.6572 H       1  UNL1        0.0660
     57 H          -1.1574   -0.4276    8.8925 H       1  UNL1        0.0660
     58 H          -0.8289   -2.0119    8.2326 H       1  UNL1        0.0660
@<TRIPOS>UNITY_ATOM_ATTR
5 1
charge 1
@<TRIPOS>BOND
     1     1    23   ar
     2     1    26   ar
     3     2     6    1
     4     2    15    1
     5     3    24    1
     6     3    27    1
     7     4    16   ar
     8     4    20   ar
     9     5    17    1
    10     5    21    1
    11     5    28    1
    12     5    29    1
    13     6     8    1
    14     6     9    1
    15     6    10    1
    16     7     8    1
    17     7    11    1
    18     7    14    1
    19     7    16    1
    20     8    30    1
    21     8    31    1
    22     9    12    1
    23     9    32    1
    24     9    33    1
    25    10    13    1
    26    10    34    1
    27    10    35    1
    28    11    15    1
    29    11    36    1
    30    11    37    1
    31    12    13    1
    32    12    38    1
    33    12    39    1
    34    13    40    1
    35    13    41    1
    36    14    17    1
    37    14    42    1
    38    14    43    1
    39    15    44    1
    40    15    45    1
    41    16    18   ar
    42    17    46    1
    43    17    47    1
    44    18    19   ar
    45    18    48    1
    46    19    22   ar
    47    19    49    1
    48    20    22   ar
    49    20    50    1
    50    21    23    1
    51    21    51    1
    52    21    52    1
    53    22    53    1
    54    23    24   ar
    55    24    25   ar
    56    25    26   ar
    57    25    54    1
    58    26    55    1
    59    27    56    1
    60    27    57    1
    61    27    58    1
@<TRIPOS>MOLECULE
66555030
 58 61 0 0 0
SMALL
GASTEIGER

@<TRIPOS>ATOM
      1 S          -0.6079   -2.5911    0.9540 S.2     1  UNL1       -0.0926
      2 O           3.7389    2.0185   -0.6934 O.3     1  UNL1       -0.3733
      3 O          -4.1798   -3.0368    2.3622 O.3     1  UNL1       -0.4941
      4 N           1.2845   -1.5755   -1.3876 N.ar    1  UNL1       -0.2593
      5 N          -2.3661    0.0561    0.4148 N.4     1  UNL1        0.2308
      6 C           3.8512    1.2252    0.4942 C.3     1  UNL1        0.0704
      7 C           1.4231    0.3747    0.1125 C.3     1  UNL1        0.0224
      8 C           2.4643    0.9676    1.1076 C.3     1  UNL1       -0.0124
      9 C           4.7367    2.0144    1.4725 C.3     1  UNL1       -0.0237
     10 C           4.7153   -0.0215    0.2655 C.3     1  UNL1       -0.0237
     11 C           1.4573    1.2951   -1.1383 C.3     1  UNL1       -0.0181
     12 C           6.1616    1.8150    0.9589 C.3     1  UNL1       -0.0504
     13 C           6.1397    0.5192    0.1522 C.3     1  UNL1       -0.0504
     14 C           0.0115    0.4968    0.7385 C.3     1  UNL1       -0.0013
     15 C           2.8671    1.4887   -1.6863 C.3     1  UNL1        0.0492
     16 C           1.6501   -1.1244   -0.1669 C.ar    1  UNL1        0.0478
     17 C          -1.0463   -0.0856   -0.1884 C.3     1  UNL1       -0.0325
     18 C           2.2057   -1.9221    0.8205 C.ar    1  UNL1       -0.0398
     19 C           2.3986   -3.2695    0.5366 C.ar    1  UNL1       -0.0586
     20 C           1.4869   -2.8907   -1.6271 C.ar    1  UNL1        0.0279
     21 C          -2.4270   -0.6295    1.6979 C.3     1  UNL1        0.0021
     22 C           2.0352   -3.7708   -0.7083 C.ar    1  UNL1       -0.0436
     23 C          -2.1310   -2.0995    1.5627 C.ar    1  UNL1        0.0756
     24 C          -2.9369   -3.1742    1.8683 C.ar    1  UNL1        0.1353
     25 C          -2.2950   -4.4176    1.5995 C.ar    1  UNL1       -0.0124
     26 C          -1.0235   -4.2458    1.0985 C.ar    1  UNL1       -0.0203
     27 C          -4.9162   -1.8621    1.9941 C.3     1  UNL1        0.0788
     28 H          -3.0643   -0.3447   -0.2115 H       1  UNL1        0.2017
     29 H          -2.5508    1.0478    0.5659 H       1  UNL1        0.2017
     30 H           2.0834    1.8968    1.4769 H       1  UNL1        0.0302
     31 H           2.6010    0.2383    1.8785 H       1  UNL1        0.0302
     32 H           4.6369    1.6291    2.4657 H       1  UNL1        0.0293
     33 H           4.4653    3.0484    1.5180 H       1  UNL1        0.0293
     34 H           4.4274   -0.5217   -0.6355 H       1  UNL1        0.0293
     35 H           4.6127   -0.7389    1.0527 H       1  UNL1        0.0293
     36 H           1.0594    2.2516   -0.8707 H       1  UNL1        0.0296
     37 H           0.8746    0.8247   -1.9025 H       1  UNL1        0.0296
     38 H           6.8441    1.7313    1.7787 H       1  UNL1        0.0266
     39 H           6.4830    2.6431    0.3623 H       1  UNL1        0.0266
     40 H           6.3834    0.7140   -0.8713 H       1  UNL1        0.0266
     41 H           6.8570   -0.1844    0.5201 H       1  UNL1        0.0266
     42 H          -0.2061    1.5298    0.9131 H       1  UNL1        0.0326
     43 H          -0.0026   -0.0489    1.6588 H       1  UNL1        0.0326
     44 H           3.2463    0.5437   -2.0149 H       1  UNL1        0.0560
     45 H           2.8212    2.1815   -2.5004 H       1  UNL1        0.0560
     46 H          -1.0252    0.4356   -1.1226 H       1  UNL1        0.0814
     47 H          -0.8415   -1.1235   -0.3488 H       1  UNL1        0.0814
     48 H           2.4681   -1.5285    1.7377 H       1  UNL1        0.0636
     49 H           2.8100   -3.8949    1.2470 H       1  UNL1        0.0619
     50 H           1.2162   -3.2617   -2.5513 H       1  UNL1        0.0829
     51 H          -3.4081   -0.5102    2.1078 H       1  UNL1        0.0873
     52 H          -1.6865   -0.1994    2.3395 H       1  UNL1        0.0873
     53 H           2.1696   -4.7673   -0.9406 H       1  UNL1        0.0633
     54 H          -2.7315   -5.3387    1.7611 H       1  UNL1        0.0659
     55 H          -0.3953   -5.0230    0.8407 H       1  UNL1        0.0694
     56 H          -5.8808   -1.8863    2.4565 H       1  UNL1        0.0660
     57 H          -5.0311   -1.8319    0.9307 H       1  UNL1        0.0660
     58 H          -4.3859   -0.9919    2.3204 H       1  UNL1        0.0660
@<TRIPOS>UNITY_ATOM_ATTR
5 1
charge 1
@<TRIPOS>BOND
     1     1    23   ar
     2     1    26   ar
     3     2     6    1
     4     2    15    1
     5     3    24    1
     6     3    27    1
     7     4    16   ar
     8     4    20   ar
     9     5    17    1
    10     5    21    1
    11     5    28    1
    12     5    29    1
    13     6     8    1
    14     6     9    1
    15     6    10    1
    16     7     8    1
    17     7    11    1
    18     7    14    1
    19     7    16    1
    20     8    30    1
    21     8    31    1
    22     9    12    1
    23     9    32    1
    24     9    33    1
    25    10    13    1
    26    10    34    1
    27    10    35    1
    28    11    15    1
    29    11    36    1
    30    11    37    1
    31    12    13    1
    32    12    38    1
    33    12    39    1
    34    13    40    1
    35    13    41    1
    36    14    17    1
    37    14    42    1
    38    14    43    1
    39    15    44    1
    40    15    45    1
    41    16    18   ar
    42    17    46    1
    43    17    47    1
    44    18    19   ar
    45    18    48    1
    46    19    22   ar
    47    19    49    1
    48    20    22   ar
    49    20    50    1
    50    21    23    1
    51    21    51    1
    52    21    52    1
    53    22    53    1
    54    23    24   ar
    55    24    25   ar
    56    25    26   ar
    57    25    54    1
    58    26    55    1
    59    27    56    1
    60    27    57    1
    61    27    58    1
@<TRIPOS>MOLECULE
66555030
 58 61 0 0 0
SMALL
GASTEIGER

@<TRIPOS>ATOM
      1 S          -0.3042   -0.7277   -3.2545 S.2     1  UNL1       -0.0926
      2 O           3.7389    2.0185   -0.6934 O.3     1  UNL1       -0.3733
      3 O          -4.0504   -1.6783   -3.3042 O.3     1  UNL1       -0.4941
      4 N           1.0096   -1.9957    0.6441 N.ar    1  UNL1       -0.2593
      5 N          -0.7778   -1.4999   -0.4201 N.4     1  UNL1        0.2308
      6 C           3.8512    1.2252    0.4942 C.3     1  UNL1        0.0704
      7 C           1.4231    0.3747    0.1125 C.3     1  UNL1        0.0224
      8 C           2.4643    0.9676    1.1076 C.3     1  UNL1       -0.0124
      9 C           4.7367    2.0144    1.4725 C.3     1  UNL1       -0.0237
     10 C           4.7153   -0.0215    0.2655 C.3     1  UNL1       -0.0237
     11 C           1.4573    1.2951   -1.1383 C.3     1  UNL1       -0.0181
     12 C           6.1616    1.8150    0.9589 C.3     1  UNL1       -0.0504
     13 C           6.1397    0.5192    0.1522 C.3     1  UNL1       -0.0504
     14 C           0.0115    0.4968    0.7385 C.3     1  UNL1       -0.0013
     15 C           2.8671    1.4887   -1.6863 C.3     1  UNL1        0.0492
     16 C           1.6501   -1.1244   -0.1669 C.ar    1  UNL1        0.0478
     17 C          -1.0463   -0.0856   -0.1884 C.3     1  UNL1       -0.0325
     18 C           2.4788   -1.5020   -1.2112 C.ar    1  UNL1       -0.0398
     19 C           2.6617   -2.8617   -1.4377 C.ar    1  UNL1       -0.0586
     20 C           1.2117   -3.3090    0.3936 C.ar    1  UNL1        0.0279
     21 C          -1.7684   -2.0760   -1.3184 C.3     1  UNL1        0.0021
     22 C           2.0195   -3.7888   -0.6246 C.ar    1  UNL1       -0.0436
     23 C          -1.7634   -1.4021   -2.6647 C.ar    1  UNL1        0.0756
     24 C          -2.8061   -1.2316   -3.5489 C.ar    1  UNL1        0.1353
     25 C          -2.4012   -0.5386   -4.7262 C.ar    1  UNL1       -0.0124
     26 C          -1.0650   -0.2056   -4.6969 C.ar    1  UNL1       -0.0203
     27 C          -5.0485   -1.4518   -4.3092 C.3     1  UNL1        0.0788
     28 H          -0.8065   -1.9956    0.4708 H       1  UNL1        0.2017
     29 H           0.1432   -1.5909   -0.8488 H       1  UNL1        0.2017
     30 H           2.0834    1.8968    1.4769 H       1  UNL1        0.0302
     31 H           2.6010    0.2383    1.8785 H       1  UNL1        0.0302
     32 H           4.6369    1.6291    2.4657 H       1  UNL1        0.0293
     33 H           4.4653    3.0484    1.5180 H       1  UNL1        0.0293
     34 H           4.4274   -0.5217   -0.6355 H       1  UNL1        0.0293
     35 H           4.6127   -0.7389    1.0527 H       1  UNL1        0.0293
     36 H           1.0594    2.2516   -0.8707 H       1  UNL1        0.0296
     37 H           0.8746    0.8247   -1.9025 H       1  UNL1        0.0296
     38 H           6.8441    1.7313    1.7787 H       1  UNL1        0.0266
     39 H           6.4830    2.6431    0.3623 H       1  UNL1        0.0266
     40 H           6.3834    0.7140   -0.8713 H       1  UNL1        0.0266
     41 H           6.8570   -0.1844    0.5201 H       1  UNL1        0.0266
     42 H          -0.2061    1.5298    0.9131 H       1  UNL1        0.0326
     43 H          -0.0026   -0.0489    1.6588 H       1  UNL1        0.0326
     44 H           3.2463    0.5437   -2.0149 H       1  UNL1        0.0560
     45 H           2.8212    2.1815   -2.5004 H       1  UNL1        0.0560
     46 H          -2.0110    0.0235    0.2613 H       1  UNL1        0.0814
     47 H          -1.0219    0.4356   -1.1225 H       1  UNL1        0.0814
     48 H           2.9456   -0.7964   -1.8022 H       1  UNL1        0.0636
     49 H           3.2717   -3.1813   -2.2064 H       1  UNL1        0.0619
     50 H           0.7349   -3.9962    0.9981 H       1  UNL1        0.0829
     51 H          -2.7383   -1.9665   -0.8801 H       1  UNL1        0.0873
     52 H          -1.5251   -3.1079   -1.4629 H       1  UNL1        0.0873
     53 H           2.1408   -4.8026   -0.7748 H       1  UNL1        0.0633
     54 H          -3.0347   -0.3127   -5.5089 H       1  UNL1        0.0659
     55 H          -0.5796    0.2992   -5.4549 H       1  UNL1        0.0694
     56 H          -5.9830   -1.8572   -3.9816 H       1  UNL1        0.0660
     57 H          -4.7523   -1.9292   -5.2199 H       1  UNL1        0.0660
     58 H          -5.1547   -0.4002   -4.4759 H       1  UNL1        0.0660
@<TRIPOS>UNITY_ATOM_ATTR
5 1
charge 1
@<TRIPOS>BOND
     1     1    23   ar
     2     1    26   ar
     3     2     6    1
     4     2    15    1
     5     3    24    1
     6     3    27    1
     7     4    16   ar
     8     4    20   ar
     9     5    17    1
    10     5    21    1
    11     5    28    1
    12     5    29    1
    13     6     8    1
    14     6     9    1
    15     6    10    1
    16     7     8    1
    17     7    11    1
    18     7    14    1
    19     7    16    1
    20     8    30    1
    21     8    31    1
    22     9    12    1
    23     9    32    1
    24     9    33    1
    25    10    13    1
    26    10    34    1
    27    10    35    1
    28    11    15    1
    29    11    36    1
    30    11    37    1
    31    12    13    1
    32    12    38    1
    33    12    39    1
    34    13    40    1
    35    13    41    1
    36    14    17    1
    37    14    42    1
    38    14    43    1
    39    15    44    1
    40    15    45    1
    41    16    18   ar
    42    17    46    1
    43    17    47    1
    44    18    19   ar
    45    18    48    1
    46    19    22   ar
    47    19    49    1
    48    20    22   ar
    49    20    50    1
    50    21    23    1
    51    21    51    1
    52    21    52    1
    53    22    53    1
    54    23    24   ar
    55    24    25   ar
    56    25    26   ar
    57    25    54    1
    58    26    55    1
    59    27    56    1
    60    27    57    1
    61    27    58    1
@<TRIPOS>MOLECULE
66555030
 58 61 0 0 0
SMALL
GASTEIGER

@<TRIPOS>ATOM
      1 S          -0.1207    1.4027    4.8257 S.2     1  UNL1       -0.0926
      2 O           3.7389    2.0185   -0.6934 O.3     1  UNL1       -0.3733
      3 O          -0.0985   -2.1922    6.2458 O.3     1  UNL1       -0.4941
      4 N           0.7973   -1.7152   -1.0334 N.ar    1  UNL1       -0.2593
      5 N          -1.4031   -0.1338    2.6236 N.4     1  UNL1        0.2308
      6 C           3.8512    1.2252    0.4942 C.3     1  UNL1        0.0704
      7 C           1.4231    0.3747    0.1125 C.3     1  UNL1        0.0224
      8 C           2.4643    0.9676    1.1076 C.3     1  UNL1       -0.0124
      9 C           4.7367    2.0144    1.4725 C.3     1  UNL1       -0.0237
     10 C           4.7153   -0.0215    0.2655 C.3     1  UNL1       -0.0237
     11 C           1.4573    1.2951   -1.1383 C.3     1  UNL1       -0.0181
     12 C           6.1616    1.8150    0.9589 C.3     1  UNL1       -0.0504
     13 C           6.1397    0.5192    0.1522 C.3     1  UNL1       -0.0504
     14 C           0.0115    0.4968    0.7385 C.3     1  UNL1       -0.0013
     15 C           2.8671    1.4887   -1.6863 C.3     1  UNL1        0.0492
     16 C           1.6501   -1.1244   -0.1669 C.ar    1  UNL1        0.0478
     17 C          -0.0619   -0.2494    2.0632 C.3     1  UNL1       -0.0325
     18 C           2.6925   -1.7823    0.4660 C.ar    1  UNL1       -0.0398
     19 C           2.8712   -3.1336    0.1916 C.ar    1  UNL1       -0.0586
     20 C           1.0020   -3.0297   -1.2753 C.ar    1  UNL1        0.0279
     21 C          -1.4936   -0.8268    3.9010 C.3     1  UNL1        0.0021
     22 C           2.0142   -3.7766   -0.6946 C.ar    1  UNL1       -0.0436
     23 C          -0.5422   -0.2544    4.9179 C.ar    1  UNL1        0.0756
     24 C           0.0791   -0.8880    5.9717 C.ar    1  UNL1        0.1353
     25 C           0.9118   -0.0010    6.7133 C.ar    1  UNL1       -0.0124
     26 C           0.8955    1.2764    6.1980 C.ar    1  UNL1       -0.0203
     27 C           0.9919   -2.8990    6.8532 C.3     1  UNL1        0.0788
     28 H          -2.0733   -0.5436    1.9730 H       1  UNL1        0.2017
     29 H          -1.6099    0.8537    2.7730 H       1  UNL1        0.2017
     30 H           2.0834    1.8968    1.4769 H       1  UNL1        0.0302
     31 H           2.6010    0.2383    1.8785 H       1  UNL1        0.0302
     32 H           4.6369    1.6291    2.4657 H       1  UNL1        0.0293
     33 H           4.4653    3.0484    1.5180 H       1  UNL1        0.0293
     34 H           4.4274   -0.5217   -0.6355 H       1  UNL1        0.0293
     35 H           4.6127   -0.7389    1.0527 H       1  UNL1        0.0293
     36 H           1.0594    2.2516   -0.8707 H       1  UNL1        0.0296
     37 H           0.8746    0.8247   -1.9025 H       1  UNL1        0.0296
     38 H           6.8441    1.7313    1.7787 H       1  UNL1        0.0266
     39 H           6.4830    2.6431    0.3623 H       1  UNL1        0.0266
     40 H           6.3834    0.7140   -0.8713 H       1  UNL1        0.0266
     41 H           6.8570   -0.1844    0.5201 H       1  UNL1        0.0266
     42 H          -0.7081    0.0833    0.0632 H       1  UNL1        0.0326
     43 H          -0.1948    1.5314    0.9172 H       1  UNL1        0.0326
     44 H           3.2463    0.5437   -2.0149 H       1  UNL1        0.0560
     45 H           2.8212    2.1815   -2.5004 H       1  UNL1        0.0560
     46 H           0.1675   -1.2821    1.9020 H       1  UNL1        0.0814
     47 H           0.6435    0.1751    2.7466 H       1  UNL1        0.0814
     48 H           3.3166   -1.2850    1.1204 H       1  UNL1        0.0636
     49 H           3.6368   -3.6573    0.6439 H       1  UNL1        0.0619
     50 H           0.3649   -3.5059   -1.9329 H       1  UNL1        0.0829
     51 H          -1.2598   -1.8601    3.7514 H       1  UNL1        0.0873
     52 H          -2.4894   -0.7070    4.2737 H       1  UNL1        0.0873
     53 H           2.1285   -4.7787   -0.9131 H       1  UNL1        0.0633
     54 H           1.4625   -0.2824    7.5394 H       1  UNL1        0.0659
     55 H           1.4324    2.0644    6.5926 H       1  UNL1        0.0694
     56 H           0.7111   -3.9192    7.0127 H       1  UNL1        0.0660
     57 H           1.2330   -2.4446    7.7915 H       1  UNL1        0.0660
     58 H           1.8451   -2.8606    6.2086 H       1  UNL1        0.0660
@<TRIPOS>UNITY_ATOM_ATTR
5 1
charge 1
@<TRIPOS>BOND
     1     1    23   ar
     2     1    26   ar
     3     2     6    1
     4     2    15    1
     5     3    24    1
     6     3    27    1
     7     4    16   ar
     8     4    20   ar
     9     5    17    1
    10     5    21    1
    11     5    28    1
    12     5    29    1
    13     6     8    1
    14     6     9    1
    15     6    10    1
    16     7     8    1
    17     7    11    1
    18     7    14    1
    19     7    16    1
    20     8    30    1
    21     8    31    1
    22     9    12    1
    23     9    32    1
    24     9    33    1
    25    10    13    1
    26    10    34    1
    27    10    35    1
    28    11    15    1
    29    11    36    1
    30    11    37    1
    31    12    13    1
    32    12    38    1
    33    12    39    1
    34    13    40    1
    35    13    41    1
    36    14    17    1
    37    14    42    1
    38    14    43    1
    39    15    44    1
    40    15    45    1
    41    16    18   ar
    42    17    46    1
    43    17    47    1
    44    18    19   ar
    45    18    48    1
    46    19    22   ar
    47    19    49    1
    48    20    22   ar
    49    20    50    1
    50    21    23    1
    51    21    51    1
    52    21    52    1
    53    22    53    1
    54    23    24   ar
    55    24    25   ar
    56    25    26   ar
    57    25    54    1
    58    26    55    1
    59    27    56    1
    60    27    57    1
    61    27    58    1
@<TRIPOS>MOLECULE
66555030
 58 61 0 0 0
SMALL
GASTEIGER

@<TRIPOS>ATOM
      1 S          -0.4419   -4.7940    1.8438 S.2     1  UNL1       -0.0926
      2 O           3.7389    2.0185   -0.6934 O.3     1  UNL1       -0.3733
      3 O           2.3680   -4.0721    4.3981 O.3     1  UNL1       -0.4941
      4 N           0.5529   -1.8606   -0.4523 N.ar    1  UNL1       -0.2593
      5 N           0.2477   -1.6591    1.8559 N.4     1  UNL1        0.2308
      6 C           3.8512    1.2252    0.4942 C.3     1  UNL1        0.0704
      7 C           1.4231    0.3747    0.1125 C.3     1  UNL1        0.0224
      8 C           2.4643    0.9676    1.1076 C.3     1  UNL1       -0.0124
      9 C           4.7367    2.0144    1.4725 C.3     1  UNL1       -0.0237
     10 C           4.7153   -0.0215    0.2655 C.3     1  UNL1       -0.0237
     11 C           1.4573    1.2951   -1.1383 C.3     1  UNL1       -0.0181
     12 C           6.1616    1.8150    0.9589 C.3     1  UNL1       -0.0504
     13 C           6.1397    0.5192    0.1522 C.3     1  UNL1       -0.0504
     14 C           0.0115    0.4968    0.7385 C.3     1  UNL1       -0.0013
     15 C           2.8671    1.4887   -1.6863 C.3     1  UNL1        0.0492
     16 C           1.6501   -1.1244   -0.1669 C.ar    1  UNL1        0.0478
     17 C          -0.0619   -0.2494    2.0632 C.3     1  UNL1       -0.0325
     18 C           2.9364   -1.6370   -0.1153 C.ar    1  UNL1       -0.0398
     19 C           3.1075   -2.9925   -0.3735 C.ar    1  UNL1       -0.0586
     20 C           0.7583   -3.1743   -0.6974 C.ar    1  UNL1        0.0279
     21 C           0.1675   -2.3980    3.1079 C.3     1  UNL1        0.0021
     22 C           2.0028   -3.7827   -0.6710 C.ar    1  UNL1       -0.0436
     23 C           0.5003   -3.8545    2.9216 C.ar    1  UNL1        0.0756
     24 C           1.4998   -4.5945    3.5143 C.ar    1  UNL1        0.1353
     25 C           1.4920   -5.9507    3.0773 C.ar    1  UNL1       -0.0124
     26 C           0.4870   -6.1955    2.1677 C.ar    1  UNL1       -0.0203
     27 C           2.8885   -4.9416    5.4133 C.3     1  UNL1        0.0788
     28 H           1.1919   -1.7417    1.4791 H       1  UNL1        0.2017
     29 H          -0.4317   -2.0495    1.2028 H       1  UNL1        0.2017
     30 H           2.0834    1.8968    1.4769 H       1  UNL1        0.0302
     31 H           2.6010    0.2383    1.8785 H       1  UNL1        0.0302
     32 H           4.6369    1.6291    2.4657 H       1  UNL1        0.0293
     33 H           4.4653    3.0484    1.5180 H       1  UNL1        0.0293
     34 H           4.4274   -0.5217   -0.6355 H       1  UNL1        0.0293
     35 H           4.6127   -0.7389    1.0527 H       1  UNL1        0.0293
     36 H           1.0594    2.2516   -0.8707 H       1  UNL1        0.0296
     37 H           0.8746    0.8247   -1.9025 H       1  UNL1        0.0296
     38 H           6.8441    1.7313    1.7787 H       1  UNL1        0.0266
     39 H           6.4830    2.6431    0.3623 H       1  UNL1        0.0266
     40 H           6.3834    0.7140   -0.8713 H       1  UNL1        0.0266
     41 H           6.8570   -0.1844    0.5201 H       1  UNL1        0.0266
     42 H          -0.7081    0.0833    0.0632 H       1  UNL1        0.0326
     43 H          -0.1948    1.5314    0.9172 H       1  UNL1        0.0326
     44 H           3.2463    0.5437   -2.0149 H       1  UNL1        0.0560
     45 H           2.8212    2.1815   -2.5004 H       1  UNL1        0.0560
     46 H           0.6443    0.1721    2.7476 H       1  UNL1        0.0814
     47 H          -1.0503   -0.1608    2.4635 H       1  UNL1        0.0814
     48 H           3.7420   -1.0318    0.1077 H       1  UNL1        0.0636
     49 H           4.0506   -3.4104   -0.3443 H       1  UNL1        0.0619
     50 H          -0.0624   -3.7598   -0.9176 H       1  UNL1        0.0829
     51 H          -0.8269   -2.3168    3.4946 H       1  UNL1        0.0873
     52 H           0.8804   -1.9788    3.7869 H       1  UNL1        0.0873
     53 H           2.1066   -4.7908   -0.8661 H       1  UNL1        0.0633
     54 H           2.1608   -6.6656    3.4039 H       1  UNL1        0.0659
     55 H           0.3142   -7.1152    1.7327 H       1  UNL1        0.0694
     56 H           3.5615   -4.3950    6.0403 H       1  UNL1        0.0660
     57 H           3.4102   -5.7547    4.9533 H       1  UNL1        0.0660
     58 H           2.0819   -5.3238    6.0035 H       1  UNL1        0.0660
@<TRIPOS>UNITY_ATOM_ATTR
5 1
charge 1
@<TRIPOS>BOND
     1     1    23   ar
     2     1    26   ar
     3     2     6    1
     4     2    15    1
     5     3    24    1
     6     3    27    1
     7     4    16   ar
     8     4    20   ar
     9     5    17    1
    10     5    21    1
    11     5    28    1
    12     5    29    1
    13     6     8    1
    14     6     9    1
    15     6    10    1
    16     7     8    1
    17     7    11    1
    18     7    14    1
    19     7    16    1
    20     8    30    1
    21     8    31    1
    22     9    12    1
    23     9    32    1
    24     9    33    1
    25    10    13    1
    26    10    34    1
    27    10    35    1
    28    11    15    1
    29    11    36    1
    30    11    37    1
    31    12    13    1
    32    12    38    1
    33    12    39    1
    34    13    40    1
    35    13    41    1
    36    14    17    1
    37    14    42    1
    38    14    43    1
    39    15    44    1
    40    15    45    1
    41    16    18   ar
    42    17    46    1
    43    17    47    1
    44    18    19   ar
    45    18    48    1
    46    19    22   ar
    47    19    49    1
    48    20    22   ar
    49    20    50    1
    50    21    23    1
    51    21    51    1
    52    21    52    1
    53    22    53    1
    54    23    24   ar
    55    24    25   ar
    56    25    26   ar
    57    25    54    1
    58    26    55    1
    59    27    56    1
    60    27    57    1
    61    27    58    1
@<TRIPOS>MOLECULE
66555030
 58 61 0 0 0
SMALL
GASTEIGER

@<TRIPOS>ATOM
      1 S          -4.4308    1.5226   -2.0303 S.2     1  UNL1       -0.0926
      2 O           3.7389    2.0185   -0.6934 O.3     1  UNL1       -0.3733
      3 O          -1.8759   -1.2115   -2.9986 O.3     1  UNL1       -0.4941
      4 N           2.2078   -1.8488    0.8289 N.ar    1  UNL1       -0.2593
      5 N          -2.3661    0.0561    0.4148 N.4     1  UNL1        0.2308
      6 C           3.8512    1.2252    0.4942 C.3     1  UNL1        0.0704
      7 C           1.4231    0.3747    0.1125 C.3     1  UNL1        0.0224
      8 C           2.4643    0.9676    1.1076 C.3     1  UNL1       -0.0124
      9 C           4.7367    2.0144    1.4725 C.3     1  UNL1       -0.0237
     10 C           4.7153   -0.0215    0.2655 C.3     1  UNL1       -0.0237
     11 C           1.4573    1.2951   -1.1383 C.3     1  UNL1       -0.0181
     12 C           6.1616    1.8150    0.9589 C.3     1  UNL1       -0.0504
     13 C           6.1397    0.5192    0.1522 C.3     1  UNL1       -0.0504
     14 C           0.0115    0.4968    0.7385 C.3     1  UNL1       -0.0013
     15 C           2.8671    1.4887   -1.6863 C.3     1  UNL1        0.0492
     16 C           1.6501   -1.1244   -0.1669 C.ar    1  UNL1        0.0478
     17 C          -1.0463   -0.0856   -0.1884 C.3     1  UNL1       -0.0325
     18 C           1.2807   -1.6492   -1.3950 C.ar    1  UNL1       -0.0398
     19 C           1.4975   -3.0049   -1.6150 C.ar    1  UNL1       -0.0586
     20 C           2.4034   -3.1629    0.5784 C.ar    1  UNL1        0.0279
     21 C          -3.3944   -0.5095   -0.4471 C.3     1  UNL1        0.0021
     22 C           2.0690   -3.7832   -0.6145 C.ar    1  UNL1       -0.0436
     23 C          -3.4239    0.1574   -1.7965 C.ar    1  UNL1        0.0756
     24 C          -2.7299   -0.1747   -2.9393 C.ar    1  UNL1        0.1353
     25 C          -3.0285    0.7036   -4.0207 C.ar    1  UNL1       -0.0124
     26 C          -3.9394    1.6731   -3.6636 C.ar    1  UNL1       -0.0203
     27 C          -1.2019   -1.4482   -4.2425 C.3     1  UNL1        0.0788
     28 H          -2.5614    1.0463    0.5623 H       1  UNL1        0.2017
     29 H          -2.3739   -0.4445    1.3035 H       1  UNL1        0.2017
     30 H           2.0834    1.8968    1.4769 H       1  UNL1        0.0302
     31 H           2.6010    0.2383    1.8785 H       1  UNL1        0.0302
     32 H           4.6369    1.6291    2.4657 H       1  UNL1        0.0293
     33 H           4.4653    3.0484    1.5180 H       1  UNL1        0.0293
     34 H           4.4274   -0.5217   -0.6355 H       1  UNL1        0.0293
     35 H           4.6127   -0.7389    1.0527 H       1  UNL1        0.0293
     36 H           1.0594    2.2516   -0.8707 H       1  UNL1        0.0296
     37 H           0.8746    0.8247   -1.9025 H       1  UNL1        0.0296
     38 H           6.8441    1.7313    1.7787 H       1  UNL1        0.0266
     39 H           6.4830    2.6431    0.3623 H       1  UNL1        0.0266
     40 H           6.3834    0.7140   -0.8713 H       1  UNL1        0.0266
     41 H           6.8570   -0.1844    0.5201 H       1  UNL1        0.0266
     42 H          -0.2061    1.5298    0.9131 H       1  UNL1        0.0326
     43 H          -0.0026   -0.0489    1.6588 H       1  UNL1        0.0326
     44 H           3.2463    0.5437   -2.0149 H       1  UNL1        0.0560
     45 H           2.8212    2.1815   -2.5004 H       1  UNL1        0.0560
     46 H          -1.0252    0.4356   -1.1226 H       1  UNL1        0.0814
     47 H          -0.8415   -1.1235   -0.3488 H       1  UNL1        0.0814
     48 H           0.8580   -1.0527   -2.1233 H       1  UNL1        0.0636
     49 H           1.2353   -3.4318   -2.5172 H       1  UNL1        0.0619
     50 H           2.8281   -3.7395    1.3215 H       1  UNL1        0.0829
     51 H          -4.3475   -0.3831    0.0224 H       1  UNL1        0.0873
     52 H          -3.1715   -1.5457   -0.5937 H       1  UNL1        0.0873
     53 H           2.2387   -4.7913   -0.7560 H       1  UNL1        0.0633
     54 H          -2.6113    0.6229   -4.9612 H       1  UNL1        0.0659
     55 H          -4.2850    2.4041   -4.3049 H       1  UNL1        0.0694
     56 H          -0.5592   -2.2980   -4.1439 H       1  UNL1        0.0660
     57 H          -0.6195   -0.5888   -4.5018 H       1  UNL1        0.0660
     58 H          -1.9242   -1.6342   -5.0098 H       1  UNL1        0.0660
@<TRIPOS>UNITY_ATOM_ATTR
5 1
charge 1
@<TRIPOS>BOND
     1     1    23   ar
     2     1    26   ar
     3     2     6    1
     4     2    15    1
     5     3    24    1
     6     3    27    1
     7     4    16   ar
     8     4    20   ar
     9     5    17    1
    10     5    21    1
    11     5    28    1
    12     5    29    1
    13     6     8    1
    14     6     9    1
    15     6    10    1
    16     7     8    1
    17     7    11    1
    18     7    14    1
    19     7    16    1
    20     8    30    1
    21     8    31    1
    22     9    12    1
    23     9    32    1
    24     9    33    1
    25    10    13    1
    26    10    34    1
    27    10    35    1
    28    11    15    1
    29    11    36    1
    30    11    37    1
    31    12    13    1
    32    12    38    1
    33    12    39    1
    34    13    40    1
    35    13    41    1
    36    14    17    1
    37    14    42    1
    38    14    43    1
    39    15    44    1
    40    15    45    1
    41    16    18   ar
    42    17    46    1
    43    17    47    1
    44    18    19   ar
    45    18    48    1
    46    19    22   ar
    47    19    49    1
    48    20    22   ar
    49    20    50    1
    50    21    23    1
    51    21    51    1
    52    21    52    1
    53    22    53    1
    54    23    24   ar
    55    24    25   ar
    56    25    26   ar
    57    25    54    1
    58    26    55    1
    59    27    56    1
    60    27    57    1
    61    27    58    1
@<TRIPOS>MOLECULE
66555030
 58 61 0 0 0
SMALL
GASTEIGER

@<TRIPOS>ATOM
      1 S          -3.0455   -0.7996    0.9570 S.2     1  UNL1       -0.0926
      2 O           3.7389    2.0185   -0.6934 O.3     1  UNL1       -0.3733
      3 O          -2.2930   -4.1920    2.6499 O.3     1  UNL1       -0.4941
      4 N           2.6903   -1.7085    0.4687 N.ar    1  UNL1       -0.2593
      5 N           0.2477   -1.6591    1.8559 N.4     1  UNL1        0.2308
      6 C           3.8512    1.2252    0.4942 C.3     1  UNL1        0.0704
      7 C           1.4231    0.3747    0.1125 C.3     1  UNL1        0.0224
      8 C           2.4643    0.9676    1.1076 C.3     1  UNL1       -0.0124
      9 C           4.7367    2.0144    1.4725 C.3     1  UNL1       -0.0237
     10 C           4.7153   -0.0215    0.2655 C.3     1  UNL1       -0.0237
     11 C           1.4573    1.2951   -1.1383 C.3     1  UNL1       -0.0181
     12 C           6.1616    1.8150    0.9589 C.3     1  UNL1       -0.0504
     13 C           6.1397    0.5192    0.1522 C.3     1  UNL1       -0.0504
     14 C           0.0115    0.4968    0.7385 C.3     1  UNL1       -0.0013
     15 C           2.8671    1.4887   -1.6863 C.3     1  UNL1        0.0492
     16 C           1.6501   -1.1244   -0.1669 C.ar    1  UNL1        0.0478
     17 C          -0.0619   -0.2494    2.0632 C.3     1  UNL1       -0.0325
     18 C           0.7985   -1.7894   -1.0344 C.ar    1  UNL1       -0.0398
     19 C           1.0295   -3.1412   -1.2641 C.ar    1  UNL1       -0.0586
     20 C           2.8838   -3.0235    0.2205 C.ar    1  UNL1        0.0279
     21 C          -0.6861   -2.2631    0.9161 C.3     1  UNL1        0.0021
     22 C           2.0898   -3.7774   -0.6284 C.ar    1  UNL1       -0.0436
     23 C          -2.1091   -2.1638    1.3977 C.ar    1  UNL1        0.0756
     24 C          -2.8190   -3.0466    2.1817 C.ar    1  UNL1        0.1353
     25 C          -4.1493   -2.5971    2.4233 C.ar    1  UNL1       -0.0124
     26 C          -4.4054   -1.3880    1.8152 C.ar    1  UNL1       -0.0203
     27 C          -0.8803   -4.2239    2.8962 C.3     1  UNL1        0.0788
     28 H           0.1872   -2.1491    2.7484 H       1  UNL1        0.2017
     29 H           1.1899   -1.7329    1.4722 H       1  UNL1        0.2017
     30 H           2.0834    1.8968    1.4769 H       1  UNL1        0.0302
     31 H           2.6010    0.2383    1.8785 H       1  UNL1        0.0302
     32 H           4.6369    1.6291    2.4657 H       1  UNL1        0.0293
     33 H           4.4653    3.0484    1.5180 H       1  UNL1        0.0293
     34 H           4.4274   -0.5217   -0.6355 H       1  UNL1        0.0293
     35 H           4.6127   -0.7389    1.0527 H       1  UNL1        0.0293
     36 H           1.0594    2.2516   -0.8707 H       1  UNL1        0.0296
     37 H           0.8746    0.8247   -1.9025 H       1  UNL1        0.0296
     38 H           6.8441    1.7313    1.7787 H       1  UNL1        0.0266
     39 H           6.4830    2.6431    0.3623 H       1  UNL1        0.0266
     40 H           6.3834    0.7140   -0.8713 H       1  UNL1        0.0266
     41 H           6.8570   -0.1844    0.5201 H       1  UNL1        0.0266
     42 H          -0.7081    0.0833    0.0632 H       1  UNL1        0.0326
     43 H          -0.1948    1.5314    0.9172 H       1  UNL1        0.0326
     44 H           3.2463    0.5437   -2.0149 H       1  UNL1        0.0560
     45 H           2.8212    2.1815   -2.5004 H       1  UNL1        0.0560
     46 H           0.6443    0.1721    2.7476 H       1  UNL1        0.0814
     47 H          -1.0503   -0.1608    2.4635 H       1  UNL1        0.0814
     48 H           0.0175   -1.2970   -1.4954 H       1  UNL1        0.0636
     49 H           0.4163   -3.6701   -1.9039 H       1  UNL1        0.0619
     50 H           3.6714   -3.4946    0.6925 H       1  UNL1        0.0829
     51 H          -0.4337   -3.2956    0.7927 H       1  UNL1        0.0873
     52 H          -0.6120   -1.7348   -0.0114 H       1  UNL1        0.0873
     53 H           2.2794   -4.7799   -0.7841 H       1  UNL1        0.0633
     54 H          -4.8398   -3.1164    2.9877 H       1  UNL1        0.0659
     55 H          -5.3102   -0.8949    1.8704 H       1  UNL1        0.0694
     56 H          -0.6039   -5.1903    3.2632 H       1  UNL1        0.0660
     57 H          -0.6282   -3.4806    3.6235 H       1  UNL1        0.0660
     58 H          -0.3549   -4.0245    1.9856 H       1  UNL1        0.0660
@<TRIPOS>UNITY_ATOM_ATTR
5 1
charge 1
@<TRIPOS>BOND
     1     1    23   ar
     2     1    26   ar
     3     2     6    1
     4     2    15    1
     5     3    24    1
     6     3    27    1
     7     4    16   ar
     8     4    20   ar
     9     5    17    1
    10     5    21    1
    11     5    28    1
    12     5    29    1
    13     6     8    1
    14     6     9    1
    15     6    10    1
    16     7     8    1
    17     7    11    1
    18     7    14    1
    19     7    16    1
    20     8    30    1
    21     8    31    1
    22     9    12    1
    23     9    32    1
    24     9    33    1
    25    10    13    1
    26    10    34    1
    27    10    35    1
    28    11    15    1
    29    11    36    1
    30    11    37    1
    31    12    13    1
    32    12    38    1
    33    12    39    1
    34    13    40    1
    35    13    41    1
    36    14    17    1
    37    14    42    1
    38    14    43    1
    39    15    44    1
    40    15    45    1
    41    16    18   ar
    42    17    46    1
    43    17    47    1
    44    18    19   ar
    45    18    48    1
    46    19    22   ar
    47    19    49    1
    48    20    22   ar
    49    20    50    1
    50    21    23    1
    51    21    51    1
    52    21    52    1
    53    22    53    1
    54    23    24   ar
    55    24    25   ar
    56    25    26   ar
    57    25    54    1
    58    26    55    1
    59    27    56    1
    60    27    57    1
    61    27    58    1
@<TRIPOS>MOLECULE
66555030
 58 61 0 0 0
SMALL
GASTEIGER

@<TRIPOS>ATOM
      1 S          -3.1231   -3.0603    0.5504 S.2     1  UNL1       -0.0926
      2 O           3.7389    2.0185   -0.6934 O.3     1  UNL1       -0.3733
      3 O          -0.2277   -2.2994    2.9955 O.3     1  UNL1       -0.4941
      4 N           1.5734   -1.9572    0.8951 N.ar    1  UNL1       -0.2593
      5 N          -2.3661    0.0561    0.4148 N.4     1  UNL1        0.2308
      6 C           3.8512    1.2252    0.4942 C.3     1  UNL1        0.0704
      7 C           1.4231    0.3747    0.1125 C.3     1  UNL1        0.0224
      8 C           2.4643    0.9676    1.1076 C.3     1  UNL1       -0.0124
      9 C           4.7367    2.0144    1.4725 C.3     1  UNL1       -0.0237
     10 C           4.7153   -0.0215    0.2655 C.3     1  UNL1       -0.0237
     11 C           1.4573    1.2951   -1.1383 C.3     1  UNL1       -0.0181
     12 C           6.1616    1.8150    0.9589 C.3     1  UNL1       -0.0504
     13 C           6.1397    0.5192    0.1522 C.3     1  UNL1       -0.0504
     14 C           0.0115    0.4968    0.7385 C.3     1  UNL1       -0.0013
     15 C           2.8671    1.4887   -1.6863 C.3     1  UNL1        0.0492
     16 C           1.6501   -1.1244   -0.1669 C.ar    1  UNL1        0.0478
     17 C          -1.0463   -0.0856   -0.1884 C.3     1  UNL1       -0.0325
     18 C           1.9150   -1.5407   -1.4617 C.ar    1  UNL1       -0.0398
     19 C           2.1137   -2.8994   -1.6805 C.ar    1  UNL1       -0.0586
     20 C           1.7723   -3.2707    0.6437 C.ar    1  UNL1        0.0279
     21 C          -2.4270   -0.6295    1.6979 C.3     1  UNL1        0.0021
     22 C           2.0424   -3.7875   -0.6130 C.ar    1  UNL1       -0.0436
     23 C          -2.1310   -2.0995    1.5627 C.ar    1  UNL1        0.0756
     24 C          -1.1315   -2.8374    2.1579 C.ar    1  UNL1        0.1353
     25 C          -1.1807   -4.2096    1.7774 C.ar    1  UNL1       -0.0124
     26 C          -2.2159   -4.4682    0.9063 C.ar    1  UNL1       -0.0203
     27 C           1.0774   -2.8932    3.0370 C.3     1  UNL1        0.0788
     28 H          -3.0643   -0.3447   -0.2115 H       1  UNL1        0.2017
     29 H          -2.5508    1.0478    0.5659 H       1  UNL1        0.2017
     30 H           2.0834    1.8968    1.4769 H       1  UNL1        0.0302
     31 H           2.6010    0.2383    1.8785 H       1  UNL1        0.0302
     32 H           4.6369    1.6291    2.4657 H       1  UNL1        0.0293
     33 H           4.4653    3.0484    1.5180 H       1  UNL1        0.0293
     34 H           4.4274   -0.5217   -0.6355 H       1  UNL1        0.0293
     35 H           4.6127   -0.7389    1.0527 H       1  UNL1        0.0293
     36 H           1.0594    2.2516   -0.8707 H       1  UNL1        0.0296
     37 H           0.8746    0.8247   -1.9025 H       1  UNL1        0.0296
     38 H           6.8441    1.7313    1.7787 H       1  UNL1        0.0266
     39 H           6.4830    2.6431    0.3623 H       1  UNL1        0.0266
     40 H           6.3834    0.7140   -0.8713 H       1  UNL1        0.0266
     41 H           6.8570   -0.1844    0.5201 H       1  UNL1        0.0266
     42 H          -0.2061    1.5298    0.9131 H       1  UNL1        0.0326
     43 H          -0.0026   -0.0489    1.6588 H       1  UNL1        0.0326
     44 H           3.2463    0.5437   -2.0149 H       1  UNL1        0.0560
     45 H           2.8212    2.1815   -2.5004 H       1  UNL1        0.0560
     46 H          -1.0252    0.4356   -1.1226 H       1  UNL1        0.0814
     47 H          -0.8415   -1.1235   -0.3488 H       1  UNL1        0.0814
     48 H           1.9632   -0.8638   -2.2391 H       1  UNL1        0.0636
     49 H           2.3131   -3.2473   -2.6314 H       1  UNL1        0.0619
     50 H           1.7197   -3.9288    1.4369 H       1  UNL1        0.0829
     51 H          -3.4081   -0.5102    2.1078 H       1  UNL1        0.0873
     52 H          -1.6865   -0.1994    2.3395 H       1  UNL1        0.0873
     53 H           2.1863   -4.7999   -0.7525 H       1  UNL1        0.0633
     54 H          -0.5185   -4.9256    2.1148 H       1  UNL1        0.0659
     55 H          -2.4205   -5.4007    0.5143 H       1  UNL1        0.0694
     56 H           1.6867   -2.3664    3.7415 H       1  UNL1        0.0660
     57 H           1.5253   -2.8381    2.0668 H       1  UNL1        0.0660
     58 H           0.9938   -3.9178    3.3337 H       1  UNL1        0.0660
@<TRIPOS>UNITY_ATOM_ATTR
5 1
charge 1
@<TRIPOS>BOND
     1     1    23   ar
     2     1    26   ar
     3     2     6    1
     4     2    15    1
     5     3    24    1
     6     3    27    1
     7     4    16   ar
     8     4    20   ar
     9     5    17    1
    10     5    21    1
    11     5    28    1
    12     5    29    1
    13     6     8    1
    14     6     9    1
    15     6    10    1
    16     7     8    1
    17     7    11    1
    18     7    14    1
    19     7    16    1
    20     8    30    1
    21     8    31    1
    22     9    12    1
    23     9    32    1
    24     9    33    1
    25    10    13    1
    26    10    34    1
    27    10    35    1
    28    11    15    1
    29    11    36    1
    30    11    37    1
    31    12    13    1
    32    12    38    1
    33    12    39    1
    34    13    40    1
    35    13    41    1
    36    14    17    1
    37    14    42    1
    38    14    43    1
    39    15    44    1
    40    15    45    1
    41    16    18   ar
    42    17    46    1
    43    17    47    1
    44    18    19   ar
    45    18    48    1
    46    19    22   ar
    47    19    49    1
    48    20    22   ar
    49    20    50    1
    50    21    23    1
    51    21    51    1
    52    21    52    1
    53    22    53    1
    54    23    24   ar
    55    24    25   ar
    56    25    26   ar
    57    25    54    1
    58    26    55    1
    59    27    56    1
    60    27    57    1
    61    27    58    1
@<TRIPOS>MOLECULE
66555030
 58 61 0 0 0
SMALL
GASTEIGER

@<TRIPOS>ATOM
      1 S          -4.3230    2.2869    2.5795 S.2     1  UNL1       -0.0926
      2 O           3.7389    2.0185   -0.6934 O.3     1  UNL1       -0.3733
      3 O          -2.8594    0.1878    5.4764 O.3     1  UNL1       -0.4941
      4 N           1.2845   -1.5755   -1.3876 N.ar    1  UNL1       -0.2593
      5 N          -1.4031   -0.1338    2.6236 N.4     1  UNL1        0.2308
      6 C           3.8512    1.2252    0.4942 C.3     1  UNL1        0.0704
      7 C           1.4231    0.3747    0.1125 C.3     1  UNL1        0.0224
      8 C           2.4643    0.9676    1.1076 C.3     1  UNL1       -0.0124
      9 C           4.7367    2.0144    1.4725 C.3     1  UNL1       -0.0237
     10 C           4.7153   -0.0215    0.2655 C.3     1  UNL1       -0.0237
     11 C           1.4573    1.2951   -1.1383 C.3     1  UNL1       -0.0181
     12 C           6.1616    1.8150    0.9589 C.3     1  UNL1       -0.0504
     13 C           6.1397    0.5192    0.1522 C.3     1  UNL1       -0.0504
     14 C           0.0115    0.4968    0.7385 C.3     1  UNL1       -0.0013
     15 C           2.8671    1.4887   -1.6863 C.3     1  UNL1        0.0492
     16 C           1.6501   -1.1244   -0.1669 C.ar    1  UNL1        0.0478
     17 C          -0.0619   -0.2494    2.0632 C.3     1  UNL1       -0.0325
     18 C           2.2057   -1.9221    0.8205 C.ar    1  UNL1       -0.0398
     19 C           2.3986   -3.2695    0.5366 C.ar    1  UNL1       -0.0586
     20 C           1.4869   -2.8907   -1.6271 C.ar    1  UNL1        0.0279
     21 C          -1.7559    1.2618    2.8424 C.3     1  UNL1        0.0021
     22 C           2.0352   -3.7708   -0.7083 C.ar    1  UNL1       -0.0436
     23 C          -3.1315    1.4056    3.4372 C.ar    1  UNL1        0.0756
     24 C          -3.6122    0.9127    4.6305 C.ar    1  UNL1        0.1353
     25 C          -4.9768    1.2629    4.8429 C.ar    1  UNL1       -0.0124
     26 C          -5.4870    2.0103    3.8044 C.ar    1  UNL1       -0.0203
     27 C          -1.4476    0.4408    5.4946 C.3     1  UNL1        0.0788
     28 H          -1.4370   -0.6305    3.5138 H       1  UNL1        0.2017
     29 H          -2.0678   -0.5387    1.9644 H       1  UNL1        0.2017
     30 H           2.0834    1.8968    1.4769 H       1  UNL1        0.0302
     31 H           2.6010    0.2383    1.8785 H       1  UNL1        0.0302
     32 H           4.6369    1.6291    2.4657 H       1  UNL1        0.0293
     33 H           4.4653    3.0484    1.5180 H       1  UNL1        0.0293
     34 H           4.4274   -0.5217   -0.6355 H       1  UNL1        0.0293
     35 H           4.6127   -0.7389    1.0527 H       1  UNL1        0.0293
     36 H           1.0594    2.2516   -0.8707 H       1  UNL1        0.0296
     37 H           0.8746    0.8247   -1.9025 H       1  UNL1        0.0296
     38 H           6.8441    1.7313    1.7787 H       1  UNL1        0.0266
     39 H           6.4830    2.6431    0.3623 H       1  UNL1        0.0266
     40 H           6.3834    0.7140   -0.8713 H       1  UNL1        0.0266
     41 H           6.8570   -0.1844    0.5201 H       1  UNL1        0.0266
     42 H          -0.7081    0.0833    0.0632 H       1  UNL1        0.0326
     43 H          -0.1948    1.5314    0.9172 H       1  UNL1        0.0326
     44 H           3.2463    0.5437   -2.0149 H       1  UNL1        0.0560
     45 H           2.8212    2.1815   -2.5004 H       1  UNL1        0.0560
     46 H           0.1675   -1.2821    1.9020 H       1  UNL1        0.0814
     47 H           0.6435    0.1751    2.7466 H       1  UNL1        0.0814
     48 H           2.4681   -1.5285    1.7377 H       1  UNL1        0.0636
     49 H           2.8100   -3.8949    1.2470 H       1  UNL1        0.0619
     50 H           1.2162   -3.2617   -2.5513 H       1  UNL1        0.0829
     51 H          -1.7285    1.7767    1.9049 H       1  UNL1        0.0873
     52 H          -1.0511    1.6782    3.5314 H       1  UNL1        0.0873
     53 H           2.1696   -4.7673   -0.9406 H       1  UNL1        0.0633
     54 H          -5.5194    0.9889    5.6770 H       1  UNL1        0.0659
     55 H          -6.4565    2.3620    3.7688 H       1  UNL1        0.0694
     56 H          -0.9790   -0.2035    6.2089 H       1  UNL1        0.0660
     57 H          -1.2715    1.4610    5.7650 H       1  UNL1        0.0660
     58 H          -1.0391    0.2536    4.5235 H       1  UNL1        0.0660
@<TRIPOS>UNITY_ATOM_ATTR
5 1
charge 1
@<TRIPOS>BOND
     1     1    23   ar
     2     1    26   ar
     3     2     6    1
     4     2    15    1
     5     3    24    1
     6     3    27    1
     7     4    16   ar
     8     4    20   ar
     9     5    17    1
    10     5    21    1
    11     5    28    1
    12     5    29    1
    13     6     8    1
    14     6     9    1
    15     6    10    1
    16     7     8    1
    17     7    11    1
    18     7    14    1
    19     7    16    1
    20     8    30    1
    21     8    31    1
    22     9    12    1
    23     9    32    1
    24     9    33    1
    25    10    13    1
    26    10    34    1
    27    10    35    1
    28    11    15    1
    29    11    36    1
    30    11    37    1
    31    12    13    1
    32    12    38    1
    33    12    39    1
    34    13    40    1
    35    13    41    1
    36    14    17    1
    37    14    42    1
    38    14    43    1
    39    15    44    1
    40    15    45    1
    41    16    18   ar
    42    17    46    1
    43    17    47    1
    44    18    19   ar
    45    18    48    1
    46    19    22   ar
    47    19    49    1
    48    20    22   ar
    49    20    50    1
    50    21    23    1
    51    21    51    1
    52    21    52    1
    53    22    53    1
    54    23    24   ar
    55    24    25   ar
    56    25    26   ar
    57    25    54    1
    58    26    55    1
    59    27    56    1
    60    27    57    1
    61    27    58    1
@<TRIPOS>MOLECULE
66555030
 58 61 0 0 0
SMALL
GASTEIGER

@<TRIPOS>ATOM
      1 S          -5.4185    1.8042    0.2760 S.2     1  UNL1       -0.0926
      2 O           3.7389    2.0185   -0.6934 O.3     1  UNL1       -0.3733
      3 O          -3.4474    1.5524    3.5914 O.3     1  UNL1       -0.4941
      4 N           0.7973   -1.7152   -1.0334 N.ar    1  UNL1       -0.2593
      5 N          -2.3661    0.0561    0.4148 N.4     1  UNL1        0.2308
      6 C           3.8512    1.2252    0.4942 C.3     1  UNL1        0.0704
      7 C           1.4231    0.3747    0.1125 C.3     1  UNL1        0.0224
      8 C           2.4643    0.9676    1.1076 C.3     1  UNL1       -0.0124
      9 C           4.7367    2.0144    1.4725 C.3     1  UNL1       -0.0237
     10 C           4.7153   -0.0215    0.2655 C.3     1  UNL1       -0.0237
     11 C           1.4573    1.2951   -1.1383 C.3     1  UNL1       -0.0181
     12 C           6.1616    1.8150    0.9589 C.3     1  UNL1       -0.0504
     13 C           6.1397    0.5192    0.1522 C.3     1  UNL1       -0.0504
     14 C           0.0115    0.4968    0.7385 C.3     1  UNL1       -0.0013
     15 C           2.8671    1.4887   -1.6863 C.3     1  UNL1        0.0492
     16 C           1.6501   -1.1244   -0.1669 C.ar    1  UNL1        0.0478
     17 C          -1.0463   -0.0856   -0.1884 C.3     1  UNL1       -0.0325
     18 C           2.6925   -1.7823    0.4660 C.ar    1  UNL1       -0.0398
     19 C           2.8712   -3.1336    0.1916 C.ar    1  UNL1       -0.0586
     20 C           1.0020   -3.0297   -1.2753 C.ar    1  UNL1        0.0279
     21 C          -2.6872    1.4586    0.6381 C.3     1  UNL1        0.0021
     22 C           2.0142   -3.7766   -0.6946 C.ar    1  UNL1       -0.0436
     23 C          -4.0400    1.6293    1.2766 C.ar    1  UNL1        0.0756
     24 C          -4.3642    1.6694    2.6149 C.ar    1  UNL1        0.1353
     25 C          -5.7629    1.8457    2.8214 C.ar    1  UNL1       -0.0124
     26 C          -6.4543    1.9338    1.6333 C.ar    1  UNL1       -0.0203
     27 C          -3.8649    0.9586    4.8286 C.3     1  UNL1        0.0788
     28 H          -2.3797   -0.4360    1.3082 H       1  UNL1        0.2017
     29 H          -3.0591   -0.3399   -0.2203 H       1  UNL1        0.2017
     30 H           2.0834    1.8968    1.4769 H       1  UNL1        0.0302
     31 H           2.6010    0.2383    1.8785 H       1  UNL1        0.0302
     32 H           4.6369    1.6291    2.4657 H       1  UNL1        0.0293
     33 H           4.4653    3.0484    1.5180 H       1  UNL1        0.0293
     34 H           4.4274   -0.5217   -0.6355 H       1  UNL1        0.0293
     35 H           4.6127   -0.7389    1.0527 H       1  UNL1        0.0293
     36 H           1.0594    2.2516   -0.8707 H       1  UNL1        0.0296
     37 H           0.8746    0.8247   -1.9025 H       1  UNL1        0.0296
     38 H           6.8441    1.7313    1.7787 H       1  UNL1        0.0266
     39 H           6.4830    2.6431    0.3623 H       1  UNL1        0.0266
     40 H           6.3834    0.7140   -0.8713 H       1  UNL1        0.0266
     41 H           6.8570   -0.1844    0.5201 H       1  UNL1        0.0266
     42 H          -0.2061    1.5298    0.9131 H       1  UNL1        0.0326
     43 H          -0.0026   -0.0489    1.6588 H       1  UNL1        0.0326
     44 H           3.2463    0.5437   -2.0149 H       1  UNL1        0.0560
     45 H           2.8212    2.1815   -2.5004 H       1  UNL1        0.0560
     46 H          -1.0252    0.4356   -1.1226 H       1  UNL1        0.0814
     47 H          -0.8415   -1.1235   -0.3488 H       1  UNL1        0.0814
     48 H           3.3166   -1.2850    1.1204 H       1  UNL1        0.0636
     49 H           3.6368   -3.6573    0.6439 H       1  UNL1        0.0619
     50 H           0.3649   -3.5059   -1.9329 H       1  UNL1        0.0829
     51 H          -2.6816    1.9689   -0.3025 H       1  UNL1        0.0873
     52 H          -1.9532    1.8657    1.3016 H       1  UNL1        0.0873
     53 H           2.1285   -4.7787   -0.9131 H       1  UNL1        0.0633
     54 H          -6.2061    1.9008    3.7518 H       1  UNL1        0.0659
     55 H          -7.4762    2.0628    1.5688 H       1  UNL1        0.0694
     56 H          -3.0384    0.9306    5.5076 H       1  UNL1        0.0660
     57 H          -4.2114   -0.0373    4.6472 H       1  UNL1        0.0660
     58 H          -4.6564    1.5397    5.2539 H       1  UNL1        0.0660
@<TRIPOS>UNITY_ATOM_ATTR
5 1
charge 1
@<TRIPOS>BOND
     1     1    23   ar
     2     1    26   ar
     3     2     6    1
     4     2    15    1
     5     3    24    1
     6     3    27    1
     7     4    16   ar
     8     4    20   ar
     9     5    17    1
    10     5    21    1
    11     5    28    1
    12     5    29    1
    13     6     8    1
    14     6     9    1
    15     6    10    1
    16     7     8    1
    17     7    11    1
    18     7    14    1
    19     7    16    1
    20     8    30    1
    21     8    31    1
    22     9    12    1
    23     9    32    1
    24     9    33    1
    25    10    13    1
    26    10    34    1
    27    10    35    1
    28    11    15    1
    29    11    36    1
    30    11    37    1
    31    12    13    1
    32    12    38    1
    33    12    39    1
    34    13    40    1
    35    13    41    1
    36    14    17    1
    37    14    42    1
    38    14    43    1
    39    15    44    1
    40    15    45    1
    41    16    18   ar
    42    17    46    1
    43    17    47    1
    44    18    19   ar
    45    18    48    1
    46    19    22   ar
    47    19    49    1
    48    20    22   ar
    49    20    50    1
    50    21    23    1
    51    21    51    1
    52    21    52    1
    53    22    53    1
    54    23    24   ar
    55    24    25   ar
    56    25    26   ar
    57    25    54    1
    58    26    55    1
    59    27    56    1
    60    27    57    1
    61    27    58    1
@<TRIPOS>MOLECULE
66555030
 58 61 0 0 0
SMALL
GASTEIGER

@<TRIPOS>ATOM
      1 S          -4.0513   -0.0018    3.7615 S.2     1  UNL1       -0.0926
      2 O           3.7389    2.0185   -0.6934 O.3     1  UNL1       -0.3733
      3 O          -3.2860    3.7843    3.6198 O.3     1  UNL1       -0.4941
      4 N           2.8473   -1.4685   -0.6918 N.ar    1  UNL1       -0.2593
      5 N          -1.4031   -0.1338    2.6236 N.4     1  UNL1        0.2308
      6 C           3.8512    1.2252    0.4942 C.3     1  UNL1        0.0704
      7 C           1.4231    0.3747    0.1125 C.3     1  UNL1        0.0224
      8 C           2.4643    0.9676    1.1076 C.3     1  UNL1       -0.0124
      9 C           4.7367    2.0144    1.4725 C.3     1  UNL1       -0.0237
     10 C           4.7153   -0.0215    0.2655 C.3     1  UNL1       -0.0237
     11 C           1.4573    1.2951   -1.1383 C.3     1  UNL1       -0.0181
     12 C           6.1616    1.8150    0.9589 C.3     1  UNL1       -0.0504
     13 C           6.1397    0.5192    0.1522 C.3     1  UNL1       -0.0504
     14 C           0.0115    0.4968    0.7385 C.3     1  UNL1       -0.0013
     15 C           2.8671    1.4887   -1.6863 C.3     1  UNL1        0.0492
     16 C           1.6501   -1.1244   -0.1669 C.ar    1  UNL1        0.0478
     17 C          -0.0619   -0.2494    2.0632 C.3     1  UNL1       -0.0325
     18 C           0.6425   -2.0294    0.1261 C.ar    1  UNL1       -0.0398
     19 C           0.8792   -3.3741   -0.1364 C.ar    1  UNL1       -0.0586
     20 C           3.0409   -2.7846   -0.9337 C.ar    1  UNL1        0.0279
     21 C          -1.7559    1.2618    2.8424 C.3     1  UNL1        0.0021
     22 C           2.0987   -3.7672   -0.6762 C.ar    1  UNL1       -0.0436
     23 C          -3.1315    1.4056    3.4372 C.ar    1  UNL1        0.0756
     24 C          -3.8072    2.5556    3.7820 C.ar    1  UNL1        0.1353
     25 C          -5.0968    2.2773    4.3200 C.ar    1  UNL1       -0.0124
     26 C          -5.3578    0.9255    4.3655 C.ar    1  UNL1       -0.0203
     27 C          -3.6922    4.8064    4.5407 C.3     1  UNL1        0.0788
     28 H          -1.4370   -0.6305    3.5138 H       1  UNL1        0.2017
     29 H          -2.0678   -0.5387    1.9644 H       1  UNL1        0.2017
     30 H           2.0834    1.8968    1.4769 H       1  UNL1        0.0302
     31 H           2.6010    0.2383    1.8785 H       1  UNL1        0.0302
     32 H           4.6369    1.6291    2.4657 H       1  UNL1        0.0293
     33 H           4.4653    3.0484    1.5180 H       1  UNL1        0.0293
     34 H           4.4274   -0.5217   -0.6355 H       1  UNL1        0.0293
     35 H           4.6127   -0.7389    1.0527 H       1  UNL1        0.0293
     36 H           1.0594    2.2516   -0.8707 H       1  UNL1        0.0296
     37 H           0.8746    0.8247   -1.9025 H       1  UNL1        0.0296
     38 H           6.8441    1.7313    1.7787 H       1  UNL1        0.0266
     39 H           6.4830    2.6431    0.3623 H       1  UNL1        0.0266
     40 H           6.3834    0.7140   -0.8713 H       1  UNL1        0.0266
     41 H           6.8570   -0.1844    0.5201 H       1  UNL1        0.0266
     42 H          -0.7081    0.0833    0.0632 H       1  UNL1        0.0326
     43 H          -0.1948    1.5314    0.9172 H       1  UNL1        0.0326
     44 H           3.2463    0.5437   -2.0149 H       1  UNL1        0.0560
     45 H           2.8212    2.1815   -2.5004 H       1  UNL1        0.0560
     46 H           0.1675   -1.2821    1.9020 H       1  UNL1        0.0814
     47 H           0.6435    0.1751    2.7466 H       1  UNL1        0.0814
     48 H          -0.2552   -1.7152    0.5266 H       1  UNL1        0.0636
     49 H           0.1525   -4.0777    0.0686 H       1  UNL1        0.0619
     50 H           3.9463   -3.0751   -1.3349 H       1  UNL1        0.0829
     51 H          -1.7285    1.7767    1.9049 H       1  UNL1        0.0873
     52 H          -1.0511    1.6782    3.5314 H       1  UNL1        0.0873
     53 H           2.2959   -4.7597   -0.8788 H       1  UNL1        0.0633
     54 H          -5.7579    3.0031    4.6382 H       1  UNL1        0.0659
     55 H          -6.2372    0.5196    4.7218 H       1  UNL1        0.0694
     56 H          -3.2021    5.7249    4.2930 H       1  UNL1        0.0660
     57 H          -3.4253    4.5167    5.5355 H       1  UNL1        0.0660
     58 H          -4.7521    4.9401    4.4803 H       1  UNL1        0.0660
@<TRIPOS>UNITY_ATOM_ATTR
5 1
charge 1
@<TRIPOS>BOND
     1     1    23   ar
     2     1    26   ar
     3     2     6    1
     4     2    15    1
     5     3    24    1
     6     3    27    1
     7     4    16   ar
     8     4    20   ar
     9     5    17    1
    10     5    21    1
    11     5    28    1
    12     5    29    1
    13     6     8    1
    14     6     9    1
    15     6    10    1
    16     7     8    1
    17     7    11    1
    18     7    14    1
    19     7    16    1
    20     8    30    1
    21     8    31    1
    22     9    12    1
    23     9    32    1
    24     9    33    1
    25    10    13    1
    26    10    34    1
    27    10    35    1
    28    11    15    1
    29    11    36    1
    30    11    37    1
    31    12    13    1
    32    12    38    1
    33    12    39    1
    34    13    40    1
    35    13    41    1
    36    14    17    1
    37    14    42    1
    38    14    43    1
    39    15    44    1
    40    15    45    1
    41    16    18   ar
    42    17    46    1
    43    17    47    1
    44    18    19   ar
    45    18    48    1
    46    19    22   ar
    47    19    49    1
    48    20    22   ar
    49    20    50    1
    50    21    23    1
    51    21    51    1
    52    21    52    1
    53    22    53    1
    54    23    24   ar
    55    24    25   ar
    56    25    26   ar
    57    25    54    1
    58    26    55    1
    59    27    56    1
    60    27    57    1
    61    27    58    1
@<TRIPOS>MOLECULE
66555030
 58 61 0 0 0
SMALL
GASTEIGER

@<TRIPOS>ATOM
      1 S          -2.7959   -0.6168    1.6569 S.2     1  UNL1       -0.0926
      2 O           3.7389    2.0185   -0.6934 O.3     1  UNL1       -0.3733
      3 O          -2.6853   -4.4790    1.5502 O.3     1  UNL1       -0.4941
      4 N           0.7973   -1.7152   -1.0334 N.ar    1  UNL1       -0.2593
      5 N           0.2477   -1.6591    1.8559 N.4     1  UNL1        0.2308
      6 C           3.8512    1.2252    0.4942 C.3     1  UNL1        0.0704
      7 C           1.4231    0.3747    0.1125 C.3     1  UNL1        0.0224
      8 C           2.4643    0.9676    1.1076 C.3     1  UNL1       -0.0124
      9 C           4.7367    2.0144    1.4725 C.3     1  UNL1       -0.0237
     10 C           4.7153   -0.0215    0.2655 C.3     1  UNL1       -0.0237
     11 C           1.4573    1.2951   -1.1383 C.3     1  UNL1       -0.0181
     12 C           6.1616    1.8150    0.9589 C.3     1  UNL1       -0.0504
     13 C           6.1397    0.5192    0.1522 C.3     1  UNL1       -0.0504
     14 C           0.0115    0.4968    0.7385 C.3     1  UNL1       -0.0013
     15 C           2.8671    1.4887   -1.6863 C.3     1  UNL1        0.0492
     16 C           1.6501   -1.1244   -0.1669 C.ar    1  UNL1        0.0478
     17 C          -0.0619   -0.2494    2.0632 C.3     1  UNL1       -0.0325
     18 C           2.6925   -1.7823    0.4660 C.ar    1  UNL1       -0.0398
     19 C           2.8712   -3.1336    0.1916 C.ar    1  UNL1       -0.0586
     20 C           1.0020   -3.0297   -1.2753 C.ar    1  UNL1        0.0279
     21 C          -0.6861   -2.2631    0.9161 C.3     1  UNL1        0.0021
     22 C           2.0142   -3.7766   -0.6946 C.ar    1  UNL1       -0.0436
     23 C          -2.1091   -2.1638    1.3977 C.ar    1  UNL1        0.0756
     24 C          -2.9982   -3.1778    1.6794 C.ar    1  UNL1        0.1353
     25 C          -4.2599   -2.6778    2.1132 C.ar    1  UNL1       -0.0124
     26 C          -4.2870   -1.3011    2.1470 C.ar    1  UNL1       -0.0203
     27 C          -3.7432   -5.3877    1.2144 C.3     1  UNL1        0.0788
     28 H           0.1872   -2.1491    2.7484 H       1  UNL1        0.2017
     29 H           1.1899   -1.7329    1.4722 H       1  UNL1        0.2017
     30 H           2.0834    1.8968    1.4769 H       1  UNL1        0.0302
     31 H           2.6010    0.2383    1.8785 H       1  UNL1        0.0302
     32 H           4.6369    1.6291    2.4657 H       1  UNL1        0.0293
     33 H           4.4653    3.0484    1.5180 H       1  UNL1        0.0293
     34 H           4.4274   -0.5217   -0.6355 H       1  UNL1        0.0293
     35 H           4.6127   -0.7389    1.0527 H       1  UNL1        0.0293
     36 H           1.0594    2.2516   -0.8707 H       1  UNL1        0.0296
     37 H           0.8746    0.8247   -1.9025 H       1  UNL1        0.0296
     38 H           6.8441    1.7313    1.7787 H       1  UNL1        0.0266
     39 H           6.4830    2.6431    0.3623 H       1  UNL1        0.0266
     40 H           6.3834    0.7140   -0.8713 H       1  UNL1        0.0266
     41 H           6.8570   -0.1844    0.5201 H       1  UNL1        0.0266
     42 H          -0.7081    0.0833    0.0632 H       1  UNL1        0.0326
     43 H          -0.1948    1.5314    0.9172 H       1  UNL1        0.0326
     44 H           3.2463    0.5437   -2.0149 H       1  UNL1        0.0560
     45 H           2.8212    2.1815   -2.5004 H       1  UNL1        0.0560
     46 H           0.6443    0.1721    2.7476 H       1  UNL1        0.0814
     47 H          -1.0503   -0.1608    2.4635 H       1  UNL1        0.0814
     48 H           3.3166   -1.2850    1.1204 H       1  UNL1        0.0636
     49 H           3.6368   -3.6573    0.6439 H       1  UNL1        0.0619
     50 H           0.3649   -3.5059   -1.9329 H       1  UNL1        0.0829
     51 H          -0.4337   -3.2956    0.7927 H       1  UNL1        0.0873
     52 H          -0.6120   -1.7348   -0.0114 H       1  UNL1        0.0873
     53 H           2.1285   -4.7787   -0.9131 H       1  UNL1        0.0633
     54 H          -5.0595   -3.2768    2.3719 H       1  UNL1        0.0659
     55 H          -5.1092   -0.7472    2.4338 H       1  UNL1        0.0694
     56 H          -3.3516   -6.3811    1.1452 H       1  UNL1        0.0660
     57 H          -4.1702   -5.1063    0.2745 H       1  UNL1        0.0660
     58 H          -4.4969   -5.3535    1.9732 H       1  UNL1        0.0660
@<TRIPOS>UNITY_ATOM_ATTR
5 1
charge 1
@<TRIPOS>BOND
     1     1    23   ar
     2     1    26   ar
     3     2     6    1
     4     2    15    1
     5     3    24    1
     6     3    27    1
     7     4    16   ar
     8     4    20   ar
     9     5    17    1
    10     5    21    1
    11     5    28    1
    12     5    29    1
    13     6     8    1
    14     6     9    1
    15     6    10    1
    16     7     8    1
    17     7    11    1
    18     7    14    1
    19     7    16    1
    20     8    30    1
    21     8    31    1
    22     9    12    1
    23     9    32    1
    24     9    33    1
    25    10    13    1
    26    10    34    1
    27    10    35    1
    28    11    15    1
    29    11    36    1
    30    11    37    1
    31    12    13    1
    32    12    38    1
    33    12    39    1
    34    13    40    1
    35    13    41    1
    36    14    17    1
    37    14    42    1
    38    14    43    1
    39    15    44    1
    40    15    45    1
    41    16    18   ar
    42    17    46    1
    43    17    47    1
    44    18    19   ar
    45    18    48    1
    46    19    22   ar
    47    19    49    1
    48    20    22   ar
    49    20    50    1
    50    21    23    1
    51    21    51    1
    52    21    52    1
    53    22    53    1
    54    23    24   ar
    55    24    25   ar
    56    25    26   ar
    57    25    54    1
    58    26    55    1
    59    27    56    1
    60    27    57    1
    61    27    58    1
@<TRIPOS>MOLECULE
66555030
 58 61 0 0 0
SMALL
GASTEIGER

@<TRIPOS>ATOM
      1 S          -2.4311   -1.4008    2.8965 S.2     1  UNL1       -0.0926
      2 O           3.7389    2.0185   -0.6934 O.3     1  UNL1       -0.3733
      3 O          -3.2584   -3.2467   -0.3973 O.3     1  UNL1       -0.4941
      4 N           0.7973   -1.7152   -1.0334 N.ar    1  UNL1       -0.2593
      5 N           0.2477   -1.6591    1.8559 N.4     1  UNL1        0.2308
      6 C           3.8512    1.2252    0.4942 C.3     1  UNL1        0.0704
      7 C           1.4231    0.3747    0.1125 C.3     1  UNL1        0.0224
      8 C           2.4643    0.9676    1.1076 C.3     1  UNL1       -0.0124
      9 C           4.7367    2.0144    1.4725 C.3     1  UNL1       -0.0237
     10 C           4.7153   -0.0215    0.2655 C.3     1  UNL1       -0.0237
     11 C           1.4573    1.2951   -1.1383 C.3     1  UNL1       -0.0181
     12 C           6.1616    1.8150    0.9589 C.3     1  UNL1       -0.0504
     13 C           6.1397    0.5192    0.1522 C.3     1  UNL1       -0.0504
     14 C           0.0115    0.4968    0.7385 C.3     1  UNL1       -0.0013
     15 C           2.8671    1.4887   -1.6863 C.3     1  UNL1        0.0492
     16 C           1.6501   -1.1244   -0.1669 C.ar    1  UNL1        0.0478
     17 C          -0.0619   -0.2494    2.0632 C.3     1  UNL1       -0.0325
     18 C           2.6925   -1.7823    0.4660 C.ar    1  UNL1       -0.0398
     19 C           2.8712   -3.1336    0.1916 C.ar    1  UNL1       -0.0586
     20 C           1.0020   -3.0297   -1.2753 C.ar    1  UNL1        0.0279
     21 C          -0.6861   -2.2631    0.9161 C.3     1  UNL1        0.0021
     22 C           2.0142   -3.7766   -0.6946 C.ar    1  UNL1       -0.0436
     23 C          -2.1091   -2.1638    1.3977 C.ar    1  UNL1        0.0756
     24 C          -3.2600   -2.6150    0.7896 C.ar    1  UNL1        0.1353
     25 C          -4.4214   -2.3300    1.5644 C.ar    1  UNL1       -0.0124
     26 C          -4.1139   -1.6723    2.7349 C.ar    1  UNL1       -0.0203
     27 C          -4.4121   -3.0914   -1.2354 C.3     1  UNL1        0.0788
     28 H           0.1872   -2.1491    2.7484 H       1  UNL1        0.2017
     29 H           1.1899   -1.7329    1.4722 H       1  UNL1        0.2017
     30 H           2.0834    1.8968    1.4769 H       1  UNL1        0.0302
     31 H           2.6010    0.2383    1.8785 H       1  UNL1        0.0302
     32 H           4.6369    1.6291    2.4657 H       1  UNL1        0.0293
     33 H           4.4653    3.0484    1.5180 H       1  UNL1        0.0293
     34 H           4.4274   -0.5217   -0.6355 H       1  UNL1        0.0293
     35 H           4.6127   -0.7389    1.0527 H       1  UNL1        0.0293
     36 H           1.0594    2.2516   -0.8707 H       1  UNL1        0.0296
     37 H           0.8746    0.8247   -1.9025 H       1  UNL1        0.0296
     38 H           6.8441    1.7313    1.7787 H       1  UNL1        0.0266
     39 H           6.4830    2.6431    0.3623 H       1  UNL1        0.0266
     40 H           6.3834    0.7140   -0.8713 H       1  UNL1        0.0266
     41 H           6.8570   -0.1844    0.5201 H       1  UNL1        0.0266
     42 H          -0.7081    0.0833    0.0632 H       1  UNL1        0.0326
     43 H          -0.1948    1.5314    0.9172 H       1  UNL1        0.0326
     44 H           3.2463    0.5437   -2.0149 H       1  UNL1        0.0560
     45 H           2.8212    2.1815   -2.5004 H       1  UNL1        0.0560
     46 H           0.6443    0.1721    2.7476 H       1  UNL1        0.0814
     47 H          -1.0503   -0.1608    2.4635 H       1  UNL1        0.0814
     48 H           3.3166   -1.2850    1.1204 H       1  UNL1        0.0636
     49 H           3.6368   -3.6573    0.6439 H       1  UNL1        0.0619
     50 H           0.3649   -3.5059   -1.9329 H       1  UNL1        0.0829
     51 H          -0.4337   -3.2956    0.7927 H       1  UNL1        0.0873
     52 H          -0.6120   -1.7348   -0.0114 H       1  UNL1        0.0873
     53 H           2.1285   -4.7787   -0.9131 H       1  UNL1        0.0633
     54 H          -5.3803   -2.5863    1.2817 H       1  UNL1        0.0659
     55 H          -4.8152   -1.3779    3.4324 H       1  UNL1        0.0694
     56 H          -4.2727   -3.6451   -2.1404 H       1  UNL1        0.0660
     57 H          -4.5471   -2.0557   -1.4681 H       1  UNL1        0.0660
     58 H          -5.2772   -3.4575   -0.7229 H       1  UNL1        0.0660
@<TRIPOS>UNITY_ATOM_ATTR
5 1
charge 1
@<TRIPOS>BOND
     1     1    23   ar
     2     1    26   ar
     3     2     6    1
     4     2    15    1
     5     3    24    1
     6     3    27    1
     7     4    16   ar
     8     4    20   ar
     9     5    17    1
    10     5    21    1
    11     5    28    1
    12     5    29    1
    13     6     8    1
    14     6     9    1
    15     6    10    1
    16     7     8    1
    17     7    11    1
    18     7    14    1
    19     7    16    1
    20     8    30    1
    21     8    31    1
    22     9    12    1
    23     9    32    1
    24     9    33    1
    25    10    13    1
    26    10    34    1
    27    10    35    1
    28    11    15    1
    29    11    36    1
    30    11    37    1
    31    12    13    1
    32    12    38    1
    33    12    39    1
    34    13    40    1
    35    13    41    1
    36    14    17    1
    37    14    42    1
    38    14    43    1
    39    15    44    1
    40    15    45    1
    41    16    18   ar
    42    17    46    1
    43    17    47    1
    44    18    19   ar
    45    18    48    1
    46    19    22   ar
    47    19    49    1
    48    20    22   ar
    49    20    50    1
    50    21    23    1
    51    21    51    1
    52    21    52    1
    53    22    53    1
    54    23    24   ar
    55    24    25   ar
    56    25    26   ar
    57    25    54    1
    58    26    55    1
    59    27    56    1
    60    27    57    1
    61    27    58    1
@<TRIPOS>MOLECULE
66555030
 58 61 0 0 0
SMALL
GASTEIGER

@<TRIPOS>ATOM
      1 S          -4.8552    0.9481   -2.3049 S.2     1  UNL1       -0.0926
      2 O           3.7389    2.0185   -0.6934 O.3     1  UNL1       -0.3733
      3 O          -1.2093   -0.3087   -2.5670 O.3     1  UNL1       -0.4941
      4 N           1.8907   -1.4719   -1.4509 N.ar    1  UNL1       -0.2593
      5 N          -2.3661    0.0561    0.4148 N.4     1  UNL1        0.2308
      6 C           3.8512    1.2252    0.4942 C.3     1  UNL1        0.0704
      7 C           1.4231    0.3747    0.1125 C.3     1  UNL1        0.0224
      8 C           2.4643    0.9676    1.1076 C.3     1  UNL1       -0.0124
      9 C           4.7367    2.0144    1.4725 C.3     1  UNL1       -0.0237
     10 C           4.7153   -0.0215    0.2655 C.3     1  UNL1       -0.0237
     11 C           1.4573    1.2951   -1.1383 C.3     1  UNL1       -0.0181
     12 C           6.1616    1.8150    0.9589 C.3     1  UNL1       -0.0504
     13 C           6.1397    0.5192    0.1522 C.3     1  UNL1       -0.0504
     14 C           0.0115    0.4968    0.7385 C.3     1  UNL1       -0.0013
     15 C           2.8671    1.4887   -1.6863 C.3     1  UNL1        0.0492
     16 C           1.6501   -1.1244   -0.1669 C.ar    1  UNL1        0.0478
     17 C          -1.0463   -0.0856   -0.1884 C.3     1  UNL1       -0.0325
     18 C           1.5996   -2.0257    0.8843 C.ar    1  UNL1       -0.0398
     19 C           1.8099   -3.3703    0.5992 C.ar    1  UNL1       -0.0586
     20 C           2.0900   -2.7877   -1.6896 C.ar    1  UNL1        0.0279
     21 C          -3.3944   -0.5095   -0.4471 C.3     1  UNL1        0.0021
     22 C           2.0605   -3.7667   -0.7097 C.ar    1  UNL1       -0.0436
     23 C          -3.4239    0.1574   -1.7965 C.ar    1  UNL1        0.0756
     24 C          -2.4253    0.2377   -2.7421 C.ar    1  UNL1        0.1353
     25 C          -2.8407    0.9582   -3.8990 C.ar    1  UNL1       -0.0124
     26 C          -4.1408    1.4009   -3.7938 C.ar    1  UNL1       -0.0203
     27 C          -0.2486   -0.1457   -3.6196 C.3     1  UNL1        0.0788
     28 H          -2.5614    1.0463    0.5623 H       1  UNL1        0.2017
     29 H          -2.3739   -0.4445    1.3035 H       1  UNL1        0.2017
     30 H           2.0834    1.8968    1.4769 H       1  UNL1        0.0302
     31 H           2.6010    0.2383    1.8785 H       1  UNL1        0.0302
     32 H           4.6369    1.6291    2.4657 H       1  UNL1        0.0293
     33 H           4.4653    3.0484    1.5180 H       1  UNL1        0.0293
     34 H           4.4274   -0.5217   -0.6355 H       1  UNL1        0.0293
     35 H           4.6127   -0.7389    1.0527 H       1  UNL1        0.0293
     36 H           1.0594    2.2516   -0.8707 H       1  UNL1        0.0296
     37 H           0.8746    0.8247   -1.9025 H       1  UNL1        0.0296
     38 H           6.8441    1.7313    1.7787 H       1  UNL1        0.0266
     39 H           6.4830    2.6431    0.3623 H       1  UNL1        0.0266
     40 H           6.3834    0.7140   -0.8713 H       1  UNL1        0.0266
     41 H           6.8570   -0.1844    0.5201 H       1  UNL1        0.0266
     42 H          -0.2061    1.5298    0.9131 H       1  UNL1        0.0326
     43 H          -0.0026   -0.0489    1.6588 H       1  UNL1        0.0326
     44 H           3.2463    0.5437   -2.0149 H       1  UNL1        0.0560
     45 H           2.8212    2.1815   -2.5004 H       1  UNL1        0.0560
     46 H          -1.0252    0.4356   -1.1226 H       1  UNL1        0.0814
     47 H          -0.8415   -1.1235   -0.3488 H       1  UNL1        0.0814
     48 H           1.4119   -1.7091    1.8484 H       1  UNL1        0.0636
     49 H           1.7800   -4.0712    1.3561 H       1  UNL1        0.0619
     50 H           2.2755   -3.0808   -2.6615 H       1  UNL1        0.0829
     51 H          -4.3475   -0.3831    0.0224 H       1  UNL1        0.0873
     52 H          -3.1715   -1.5457   -0.5937 H       1  UNL1        0.0873
     53 H           2.2196   -4.7591   -0.9440 H       1  UNL1        0.0633
     54 H          -2.2383    1.1285   -4.7195 H       1  UNL1        0.0659
     55 H          -4.6271    1.9417   -4.5259 H       1  UNL1        0.0694
     56 H           0.6663   -0.6280   -3.3454 H       1  UNL1        0.0660
     57 H          -0.0682    0.8968   -3.7796 H       1  UNL1        0.0660
     58 H          -0.6273   -0.5842   -4.5192 H       1  UNL1        0.0660
@<TRIPOS>UNITY_ATOM_ATTR
5 1
charge 1
@<TRIPOS>BOND
     1     1    23   ar
     2     1    26   ar
     3     2     6    1
     4     2    15    1
     5     3    24    1
     6     3    27    1
     7     4    16   ar
     8     4    20   ar
     9     5    17    1
    10     5    21    1
    11     5    28    1
    12     5    29    1
    13     6     8    1
    14     6     9    1
    15     6    10    1
    16     7     8    1
    17     7    11    1
    18     7    14    1
    19     7    16    1
    20     8    30    1
    21     8    31    1
    22     9    12    1
    23     9    32    1
    24     9    33    1
    25    10    13    1
    26    10    34    1
    27    10    35    1
    28    11    15    1
    29    11    36    1
    30    11    37    1
    31    12    13    1
    32    12    38    1
    33    12    39    1
    34    13    40    1
    35    13    41    1
    36    14    17    1
    37    14    42    1
    38    14    43    1
    39    15    44    1
    40    15    45    1
    41    16    18   ar
    42    17    46    1
    43    17    47    1
    44    18    19   ar
    45    18    48    1
    46    19    22   ar
    47    19    49    1
    48    20    22   ar
    49    20    50    1
    50    21    23    1
    51    21    51    1
    52    21    52    1
    53    22    53    1
    54    23    24   ar
    55    24    25   ar
    56    25    26   ar
    57    25    54    1
    58    26    55    1
    59    27    56    1
    60    27    57    1
    61    27    58    1
@<TRIPOS>MOLECULE
66555030
 58 61 0 0 0
SMALL
GASTEIGER

@<TRIPOS>ATOM
      1 S           1.2142   -4.2865    0.8474 S.2     1  UNL1       -0.0926
      2 O           3.7389    2.0185   -0.6934 O.3     1  UNL1       -0.3733
      3 O          -2.5902   -4.5412    0.2133 O.3     1  UNL1       -0.4941
      4 N           0.7973   -1.7152   -1.0334 N.ar    1  UNL1       -0.2593
      5 N           0.2477   -1.6591    1.8559 N.4     1  UNL1        0.2308
      6 C           3.8512    1.2252    0.4942 C.3     1  UNL1        0.0704
      7 C           1.4231    0.3747    0.1125 C.3     1  UNL1        0.0224
      8 C           2.4643    0.9676    1.1076 C.3     1  UNL1       -0.0124
      9 C           4.7367    2.0144    1.4725 C.3     1  UNL1       -0.0237
     10 C           4.7153   -0.0215    0.2655 C.3     1  UNL1       -0.0237
     11 C           1.4573    1.2951   -1.1383 C.3     1  UNL1       -0.0181
     12 C           6.1616    1.8150    0.9589 C.3     1  UNL1       -0.0504
     13 C           6.1397    0.5192    0.1522 C.3     1  UNL1       -0.0504
     14 C           0.0115    0.4968    0.7385 C.3     1  UNL1       -0.0013
     15 C           2.8671    1.4887   -1.6863 C.3     1  UNL1        0.0492
     16 C           1.6501   -1.1244   -0.1669 C.ar    1  UNL1        0.0478
     17 C          -0.0619   -0.2494    2.0632 C.3     1  UNL1       -0.0325
     18 C           2.6925   -1.7823    0.4660 C.ar    1  UNL1       -0.0398
     19 C           2.8712   -3.1336    0.1916 C.ar    1  UNL1       -0.0586
     20 C           1.0020   -3.0297   -1.2753 C.ar    1  UNL1        0.0279
     21 C          -0.6861   -2.2631    0.9161 C.3     1  UNL1        0.0021
     22 C           2.0142   -3.7766   -0.6946 C.ar    1  UNL1       -0.0436
     23 C          -0.3964   -3.7245    0.6989 C.ar    1  UNL1        0.0756
     24 C          -1.2712   -4.7403    0.3813 C.ar    1  UNL1        0.1353
     25 C          -0.6102   -5.9966    0.2589 C.ar    1  UNL1       -0.0124
     26 C           0.7443   -5.8931    0.4871 C.ar    1  UNL1       -0.0203
     27 C          -3.4736   -5.6228    0.5411 C.3     1  UNL1        0.0788
     28 H           0.1872   -2.1491    2.7484 H       1  UNL1        0.2017
     29 H           1.1899   -1.7329    1.4722 H       1  UNL1        0.2017
     30 H           2.0834    1.8968    1.4769 H       1  UNL1        0.0302
     31 H           2.6010    0.2383    1.8785 H       1  UNL1        0.0302
     32 H           4.6369    1.6291    2.4657 H       1  UNL1        0.0293
     33 H           4.4653    3.0484    1.5180 H       1  UNL1        0.0293
     34 H           4.4274   -0.5217   -0.6355 H       1  UNL1        0.0293
     35 H           4.6127   -0.7389    1.0527 H       1  UNL1        0.0293
     36 H           1.0594    2.2516   -0.8707 H       1  UNL1        0.0296
     37 H           0.8746    0.8247   -1.9025 H       1  UNL1        0.0296
     38 H           6.8441    1.7313    1.7787 H       1  UNL1        0.0266
     39 H           6.4830    2.6431    0.3623 H       1  UNL1        0.0266
     40 H           6.3834    0.7140   -0.8713 H       1  UNL1        0.0266
     41 H           6.8570   -0.1844    0.5201 H       1  UNL1        0.0266
     42 H          -0.7081    0.0833    0.0632 H       1  UNL1        0.0326
     43 H          -0.1948    1.5314    0.9172 H       1  UNL1        0.0326
     44 H           3.2463    0.5437   -2.0149 H       1  UNL1        0.0560
     45 H           2.8212    2.1815   -2.5004 H       1  UNL1        0.0560
     46 H           0.6443    0.1721    2.7476 H       1  UNL1        0.0814
     47 H          -1.0503   -0.1608    2.4635 H       1  UNL1        0.0814
     48 H           3.3166   -1.2850    1.1204 H       1  UNL1        0.0636
     49 H           3.6368   -3.6573    0.6439 H       1  UNL1        0.0619
     50 H           0.3649   -3.5059   -1.9329 H       1  UNL1        0.0829
     51 H          -0.6124   -1.7526   -0.0214 H       1  UNL1        0.0873
     52 H          -1.6710   -2.1772    1.3252 H       1  UNL1        0.0873
     53 H           2.1285   -4.7787   -0.9131 H       1  UNL1        0.0633
     54 H          -1.0899   -6.8803    0.0265 H       1  UNL1        0.0659
     55 H           1.3987   -6.6900    0.4458 H       1  UNL1        0.0694
     56 H          -4.4851   -5.3247    0.3596 H       1  UNL1        0.0660
     57 H          -3.3568   -5.8782    1.5736 H       1  UNL1        0.0660
     58 H          -3.2377   -6.4722   -0.0654 H       1  UNL1        0.0660
@<TRIPOS>UNITY_ATOM_ATTR
5 1
charge 1
@<TRIPOS>BOND
     1     1    23   ar
     2     1    26   ar
     3     2     6    1
     4     2    15    1
     5     3    24    1
     6     3    27    1
     7     4    16   ar
     8     4    20   ar
     9     5    17    1
    10     5    21    1
    11     5    28    1
    12     5    29    1
    13     6     8    1
    14     6     9    1
    15     6    10    1
    16     7     8    1
    17     7    11    1
    18     7    14    1
    19     7    16    1
    20     8    30    1
    21     8    31    1
    22     9    12    1
    23     9    32    1
    24     9    33    1
    25    10    13    1
    26    10    34    1
    27    10    35    1
    28    11    15    1
    29    11    36    1
    30    11    37    1
    31    12    13    1
    32    12    38    1
    33    12    39    1
    34    13    40    1
    35    13    41    1
    36    14    17    1
    37    14    42    1
    38    14    43    1
    39    15    44    1
    40    15    45    1
    41    16    18   ar
    42    17    46    1
    43    17    47    1
    44    18    19   ar
    45    18    48    1
    46    19    22   ar
    47    19    49    1
    48    20    22   ar
    49    20    50    1
    50    21    23    1
    51    21    51    1
    52    21    52    1
    53    22    53    1
    54    23    24   ar
    55    24    25   ar
    56    25    26   ar
    57    25    54    1
    58    26    55    1
    59    27    56    1
    60    27    57    1
    61    27    58    1
@<TRIPOS>MOLECULE
66555030
 58 61 0 0 0
SMALL
GASTEIGER

@<TRIPOS>ATOM
      1 S          -4.1580    1.6617    2.9845 S.2     1  UNL1       -0.0926
      2 O           3.7389    2.0185   -0.6934 O.3     1  UNL1       -0.3733
      3 O          -5.4279    1.7773   -0.6643 O.3     1  UNL1       -0.4941
      4 N           1.8907   -1.4719   -1.4509 N.ar    1  UNL1       -0.2593
      5 N          -2.3661    0.0561    0.4148 N.4     1  UNL1        0.2308
      6 C           3.8512    1.2252    0.4942 C.3     1  UNL1        0.0704
      7 C           1.4231    0.3747    0.1125 C.3     1  UNL1        0.0224
      8 C           2.4643    0.9676    1.1076 C.3     1  UNL1       -0.0124
      9 C           4.7367    2.0144    1.4725 C.3     1  UNL1       -0.0237
     10 C           4.7153   -0.0215    0.2655 C.3     1  UNL1       -0.0237
     11 C           1.4573    1.2951   -1.1383 C.3     1  UNL1       -0.0181
     12 C           6.1616    1.8150    0.9589 C.3     1  UNL1       -0.0504
     13 C           6.1397    0.5192    0.1522 C.3     1  UNL1       -0.0504
     14 C           0.0115    0.4968    0.7385 C.3     1  UNL1       -0.0013
     15 C           2.8671    1.4887   -1.6863 C.3     1  UNL1        0.0492
     16 C           1.6501   -1.1244   -0.1669 C.ar    1  UNL1        0.0478
     17 C          -1.0463   -0.0856   -0.1884 C.3     1  UNL1       -0.0325
     18 C           1.5996   -2.0257    0.8843 C.ar    1  UNL1       -0.0398
     19 C           1.8099   -3.3703    0.5992 C.ar    1  UNL1       -0.0586
     20 C           2.0900   -2.7877   -1.6896 C.ar    1  UNL1        0.0279
     21 C          -2.6872    1.4586    0.6381 C.3     1  UNL1        0.0021
     22 C           2.0605   -3.7667   -0.7097 C.ar    1  UNL1       -0.0436
     23 C          -4.0400    1.6293    1.2766 C.ar    1  UNL1        0.0756
     24 C          -5.2690    1.7718    0.6707 C.ar    1  UNL1        0.1353
     25 C          -6.3212    1.9098    1.6215 C.ar    1  UNL1       -0.0124
     26 C          -5.8565    1.8673    2.9175 C.ar    1  UNL1       -0.0203
     27 C          -6.7573    1.9470   -1.1757 C.3     1  UNL1        0.0788
     28 H          -2.3797   -0.4360    1.3082 H       1  UNL1        0.2017
     29 H          -3.0591   -0.3399   -0.2203 H       1  UNL1        0.2017
     30 H           2.0834    1.8968    1.4769 H       1  UNL1        0.0302
     31 H           2.6010    0.2383    1.8785 H       1  UNL1        0.0302
     32 H           4.6369    1.6291    2.4657 H       1  UNL1        0.0293
     33 H           4.4653    3.0484    1.5180 H       1  UNL1        0.0293
     34 H           4.4274   -0.5217   -0.6355 H       1  UNL1        0.0293
     35 H           4.6127   -0.7389    1.0527 H       1  UNL1        0.0293
     36 H           1.0594    2.2516   -0.8707 H       1  UNL1        0.0296
     37 H           0.8746    0.8247   -1.9025 H       1  UNL1        0.0296
     38 H           6.8441    1.7313    1.7787 H       1  UNL1        0.0266
     39 H           6.4830    2.6431    0.3623 H       1  UNL1        0.0266
     40 H           6.3834    0.7140   -0.8713 H       1  UNL1        0.0266
     41 H           6.8570   -0.1844    0.5201 H       1  UNL1        0.0266
     42 H          -0.2061    1.5298    0.9131 H       1  UNL1        0.0326
     43 H          -0.0026   -0.0489    1.6588 H       1  UNL1        0.0326
     44 H           3.2463    0.5437   -2.0149 H       1  UNL1        0.0560
     45 H           2.8212    2.1815   -2.5004 H       1  UNL1        0.0560
     46 H          -1.0252    0.4356   -1.1226 H       1  UNL1        0.0814
     47 H          -0.8415   -1.1235   -0.3488 H       1  UNL1        0.0814
     48 H           1.4119   -1.7091    1.8484 H       1  UNL1        0.0636
     49 H           1.7800   -4.0712    1.3561 H       1  UNL1        0.0619
     50 H           2.2755   -3.0808   -2.6615 H       1  UNL1        0.0829
     51 H          -2.6816    1.9689   -0.3025 H       1  UNL1        0.0873
     52 H          -1.9532    1.8657    1.3016 H       1  UNL1        0.0873
     53 H           2.2196   -4.7591   -0.9440 H       1  UNL1        0.0633
     54 H          -7.3149    2.0279    1.3688 H       1  UNL1        0.0659
     55 H          -6.4609    1.9496    3.7499 H       1  UNL1        0.0694
     56 H          -6.7327    1.9314   -2.2453 H       1  UNL1        0.0660
     57 H          -7.1510    2.8842   -0.8416 H       1  UNL1        0.0660
     58 H          -7.3798    1.1520   -0.8215 H       1  UNL1        0.0660
@<TRIPOS>UNITY_ATOM_ATTR
5 1
charge 1
@<TRIPOS>BOND
     1     1    23   ar
     2     1    26   ar
     3     2     6    1
     4     2    15    1
     5     3    24    1
     6     3    27    1
     7     4    16   ar
     8     4    20   ar
     9     5    17    1
    10     5    21    1
    11     5    28    1
    12     5    29    1
    13     6     8    1
    14     6     9    1
    15     6    10    1
    16     7     8    1
    17     7    11    1
    18     7    14    1
    19     7    16    1
    20     8    30    1
    21     8    31    1
    22     9    12    1
    23     9    32    1
    24     9    33    1
    25    10    13    1
    26    10    34    1
    27    10    35    1
    28    11    15    1
    29    11    36    1
    30    11    37    1
    31    12    13    1
    32    12    38    1
    33    12    39    1
    34    13    40    1
    35    13    41    1
    36    14    17    1
    37    14    42    1
    38    14    43    1
    39    15    44    1
    40    15    45    1
    41    16    18   ar
    42    17    46    1
    43    17    47    1
    44    18    19   ar
    45    18    48    1
    46    19    22   ar
    47    19    49    1
    48    20    22   ar
    49    20    50    1
    50    21    23    1
    51    21    51    1
    52    21    52    1
    53    22    53    1
    54    23    24   ar
    55    24    25   ar
    56    25    26   ar
    57    25    54    1
    58    26    55    1
    59    27    56    1
    60    27    57    1
    61    27    58    1
@<TRIPOS>MOLECULE
66555030
 58 61 0 0 0
SMALL
GASTEIGER

@<TRIPOS>ATOM
      1 S          -1.9751    0.8067   -2.4379 S.2     1  UNL1       -0.0926
      2 O           3.7389    2.0185   -0.6934 O.3     1  UNL1       -0.3733
      3 O          -5.7347   -0.0874   -2.3585 O.3     1  UNL1       -0.4941
      4 N           2.2078   -1.8488    0.8289 N.ar    1  UNL1       -0.2593
      5 N          -2.3661    0.0561    0.4148 N.4     1  UNL1        0.2308
      6 C           3.8512    1.2252    0.4942 C.3     1  UNL1        0.0704
      7 C           1.4231    0.3747    0.1125 C.3     1  UNL1        0.0224
      8 C           2.4643    0.9676    1.1076 C.3     1  UNL1       -0.0124
      9 C           4.7367    2.0144    1.4725 C.3     1  UNL1       -0.0237
     10 C           4.7153   -0.0215    0.2655 C.3     1  UNL1       -0.0237
     11 C           1.4573    1.2951   -1.1383 C.3     1  UNL1       -0.0181
     12 C           6.1616    1.8150    0.9589 C.3     1  UNL1       -0.0504
     13 C           6.1397    0.5192    0.1522 C.3     1  UNL1       -0.0504
     14 C           0.0115    0.4968    0.7385 C.3     1  UNL1       -0.0013
     15 C           2.8671    1.4887   -1.6863 C.3     1  UNL1        0.0492
     16 C           1.6501   -1.1244   -0.1669 C.ar    1  UNL1        0.0478
     17 C          -1.0463   -0.0856   -0.1884 C.3     1  UNL1       -0.0325
     18 C           1.2807   -1.6492   -1.3950 C.ar    1  UNL1       -0.0398
     19 C           1.4975   -3.0049   -1.6150 C.ar    1  UNL1       -0.0586
     20 C           2.4034   -3.1629    0.5784 C.ar    1  UNL1        0.0279
     21 C          -3.3944   -0.5095   -0.4471 C.3     1  UNL1        0.0021
     22 C           2.0690   -3.7832   -0.6145 C.ar    1  UNL1       -0.0436
     23 C          -3.4239    0.1574   -1.7965 C.ar    1  UNL1        0.0756
     24 C          -4.4926    0.3391   -2.6467 C.ar    1  UNL1        0.1353
     25 C          -4.1167    1.0200   -3.8405 C.ar    1  UNL1       -0.0124
     26 C          -2.7754    1.3329   -3.8573 C.ar    1  UNL1       -0.0203
     27 C          -6.8360    0.6622   -2.8906 C.3     1  UNL1        0.0788
     28 H          -2.5614    1.0463    0.5623 H       1  UNL1        0.2017
     29 H          -2.3739   -0.4445    1.3035 H       1  UNL1        0.2017
     30 H           2.0834    1.8968    1.4769 H       1  UNL1        0.0302
     31 H           2.6010    0.2383    1.8785 H       1  UNL1        0.0302
     32 H           4.6369    1.6291    2.4657 H       1  UNL1        0.0293
     33 H           4.4653    3.0484    1.5180 H       1  UNL1        0.0293
     34 H           4.4274   -0.5217   -0.6355 H       1  UNL1        0.0293
     35 H           4.6127   -0.7389    1.0527 H       1  UNL1        0.0293
     36 H           1.0594    2.2516   -0.8707 H       1  UNL1        0.0296
     37 H           0.8746    0.8247   -1.9025 H       1  UNL1        0.0296
     38 H           6.8441    1.7313    1.7787 H       1  UNL1        0.0266
     39 H           6.4830    2.6431    0.3623 H       1  UNL1        0.0266
     40 H           6.3834    0.7140   -0.8713 H       1  UNL1        0.0266
     41 H           6.8570   -0.1844    0.5201 H       1  UNL1        0.0266
     42 H          -0.2061    1.5298    0.9131 H       1  UNL1        0.0326
     43 H          -0.0026   -0.0489    1.6588 H       1  UNL1        0.0326
     44 H           3.2463    0.5437   -2.0149 H       1  UNL1        0.0560
     45 H           2.8212    2.1815   -2.5004 H       1  UNL1        0.0560
     46 H          -1.0252    0.4356   -1.1226 H       1  UNL1        0.0814
     47 H          -0.8415   -1.1235   -0.3488 H       1  UNL1        0.0814
     48 H           0.8580   -1.0527   -2.1233 H       1  UNL1        0.0636
     49 H           1.2353   -3.4318   -2.5172 H       1  UNL1        0.0619
     50 H           2.8281   -3.7395    1.3215 H       1  UNL1        0.0829
     51 H          -4.3475   -0.3831    0.0224 H       1  UNL1        0.0873
     52 H          -3.1715   -1.5457   -0.5937 H       1  UNL1        0.0873
     53 H           2.2387   -4.7913   -0.7560 H       1  UNL1        0.0633
     54 H          -4.7723    1.2515   -4.6032 H       1  UNL1        0.0659
     55 H          -2.3079    1.8264   -4.6337 H       1  UNL1        0.0694
     56 H          -7.7562    0.2112   -2.5828 H       1  UNL1        0.0660
     57 H          -6.7810    0.6669   -3.9592 H       1  UNL1        0.0660
     58 H          -6.7921    1.6675   -2.5267 H       1  UNL1        0.0660
@<TRIPOS>UNITY_ATOM_ATTR
5 1
charge 1
@<TRIPOS>BOND
     1     1    23   ar
     2     1    26   ar
     3     2     6    1
     4     2    15    1
     5     3    24    1
     6     3    27    1
     7     4    16   ar
     8     4    20   ar
     9     5    17    1
    10     5    21    1
    11     5    28    1
    12     5    29    1
    13     6     8    1
    14     6     9    1
    15     6    10    1
    16     7     8    1
    17     7    11    1
    18     7    14    1
    19     7    16    1
    20     8    30    1
    21     8    31    1
    22     9    12    1
    23     9    32    1
    24     9    33    1
    25    10    13    1
    26    10    34    1
    27    10    35    1
    28    11    15    1
    29    11    36    1
    30    11    37    1
    31    12    13    1
    32    12    38    1
    33    12    39    1
    34    13    40    1
    35    13    41    1
    36    14    17    1
    37    14    42    1
    38    14    43    1
    39    15    44    1
    40    15    45    1
    41    16    18   ar
    42    17    46    1
    43    17    47    1
    44    18    19   ar
    45    18    48    1
    46    19    22   ar
    47    19    49    1
    48    20    22   ar
    49    20    50    1
    50    21    23    1
    51    21    51    1
    52    21    52    1
    53    22    53    1
    54    23    24   ar
    55    24    25   ar
    56    25    26   ar
    57    25    54    1
    58    26    55    1
    59    27    56    1
    60    27    57    1
    61    27    58    1
@<TRIPOS>MOLECULE
66555030
 58 61 0 0 0
SMALL
GASTEIGER

@<TRIPOS>ATOM
      1 S          -4.4082    0.7290    2.6779 S.2     1  UNL1       -0.0926
      2 O           3.7389    2.0185   -0.6934 O.3     1  UNL1       -0.3733
      3 O          -2.5516    2.5175    5.5580 O.3     1  UNL1       -0.4941
      4 N           0.5529   -1.8606   -0.4523 N.ar    1  UNL1       -0.2593
      5 N          -1.6674    2.0414    1.6033 N.4     1  UNL1        0.2308
      6 C           3.8512    1.2252    0.4942 C.3     1  UNL1        0.0704
      7 C           1.4231    0.3747    0.1125 C.3     1  UNL1        0.0224
      8 C           2.4643    0.9676    1.1076 C.3     1  UNL1       -0.0124
      9 C           4.7367    2.0144    1.4725 C.3     1  UNL1       -0.0237
     10 C           4.7153   -0.0215    0.2655 C.3     1  UNL1       -0.0237
     11 C           1.4573    1.2951   -1.1383 C.3     1  UNL1       -0.0181
     12 C           6.1616    1.8150    0.9589 C.3     1  UNL1       -0.0504
     13 C           6.1397    0.5192    0.1522 C.3     1  UNL1       -0.0504
     14 C           0.0115    0.4968    0.7385 C.3     1  UNL1       -0.0013
     15 C           2.8671    1.4887   -1.6863 C.3     1  UNL1        0.0492
     16 C           1.6501   -1.1244   -0.1669 C.ar    1  UNL1        0.0478
     17 C          -0.3430    1.9539    0.9995 C.3     1  UNL1       -0.0325
     18 C           2.9364   -1.6370   -0.1153 C.ar    1  UNL1       -0.0398
     19 C           3.1075   -2.9925   -0.3735 C.ar    1  UNL1       -0.0586
     20 C           0.7583   -3.1743   -0.6974 C.ar    1  UNL1        0.0279
     21 C          -1.7056    1.3346    2.8758 C.3     1  UNL1        0.0021
     22 C           2.0028   -3.7827   -0.6710 C.ar    1  UNL1       -0.0436
     23 C          -3.0693    1.3967    3.5107 C.ar    1  UNL1        0.0756
     24 C          -3.4326    1.9361    4.7252 C.ar    1  UNL1        0.1353
     25 C          -4.8286    1.7990    4.9752 C.ar    1  UNL1       -0.0124
     26 C          -5.4790    1.1604    3.9425 C.ar    1  UNL1       -0.0203
     27 C          -3.0293    3.5777    6.3978 C.3     1  UNL1        0.0788
     28 H          -2.3511    1.6266    0.9702 H       1  UNL1        0.2017
     29 H          -1.8858    3.0238    1.7693 H       1  UNL1        0.2017
     30 H           2.0834    1.8968    1.4769 H       1  UNL1        0.0302
     31 H           2.6010    0.2383    1.8785 H       1  UNL1        0.0302
     32 H           4.6369    1.6291    2.4657 H       1  UNL1        0.0293
     33 H           4.4653    3.0484    1.5180 H       1  UNL1        0.0293
     34 H           4.4274   -0.5217   -0.6355 H       1  UNL1        0.0293
     35 H           4.6127   -0.7389    1.0527 H       1  UNL1        0.0293
     36 H           1.0594    2.2516   -0.8707 H       1  UNL1        0.0296
     37 H           0.8746    0.8247   -1.9025 H       1  UNL1        0.0296
     38 H           6.8441    1.7313    1.7787 H       1  UNL1        0.0266
     39 H           6.4830    2.6431    0.3623 H       1  UNL1        0.0266
     40 H           6.3834    0.7140   -0.8713 H       1  UNL1        0.0266
     41 H           6.8570   -0.1844    0.5201 H       1  UNL1        0.0266
     42 H          -0.0089   -0.0399    1.6640 H       1  UNL1        0.0326
     43 H          -0.7025    0.0887    0.0539 H       1  UNL1        0.0326
     44 H           3.2463    0.5437   -2.0149 H       1  UNL1        0.0560
     45 H           2.8212    2.1815   -2.5004 H       1  UNL1        0.0560
     46 H           0.3788    2.3813    1.6638 H       1  UNL1        0.0814
     47 H          -0.3422    2.4885    0.0726 H       1  UNL1        0.0814
     48 H           3.7420   -1.0318    0.1077 H       1  UNL1        0.0636
     49 H           4.0506   -3.4104   -0.3443 H       1  UNL1        0.0619
     50 H          -0.0624   -3.7598   -0.9176 H       1  UNL1        0.0829
     51 H          -0.9940    1.7790    3.5400 H       1  UNL1        0.0873
     52 H          -1.4715    0.3069    2.6918 H       1  UNL1        0.0873
     53 H           2.1066   -4.7908   -0.8661 H       1  UNL1        0.0633
     54 H          -5.2975    2.1383    5.8297 H       1  UNL1        0.0659
     55 H          -6.4923    0.9650    3.9322 H       1  UNL1        0.0694
     56 H          -2.2259    3.9432    7.0027 H       1  UNL1        0.0660
     57 H          -3.8111    3.2086    7.0283 H       1  UNL1        0.0660
     58 H          -3.4074    4.3722    5.7889 H       1  UNL1        0.0660
@<TRIPOS>UNITY_ATOM_ATTR
5 1
charge 1
@<TRIPOS>BOND
     1     1    23   ar
     2     1    26   ar
     3     2     6    1
     4     2    15    1
     5     3    24    1
     6     3    27    1
     7     4    16   ar
     8     4    20   ar
     9     5    17    1
    10     5    21    1
    11     5    28    1
    12     5    29    1
    13     6     8    1
    14     6     9    1
    15     6    10    1
    16     7     8    1
    17     7    11    1
    18     7    14    1
    19     7    16    1
    20     8    30    1
    21     8    31    1
    22     9    12    1
    23     9    32    1
    24     9    33    1
    25    10    13    1
    26    10    34    1
    27    10    35    1
    28    11    15    1
    29    11    36    1
    30    11    37    1
    31    12    13    1
    32    12    38    1
    33    12    39    1
    34    13    40    1
    35    13    41    1
    36    14    17    1
    37    14    42    1
    38    14    43    1
    39    15    44    1
    40    15    45    1
    41    16    18   ar
    42    17    46    1
    43    17    47    1
    44    18    19   ar
    45    18    48    1
    46    19    22   ar
    47    19    49    1
    48    20    22   ar
    49    20    50    1
    50    21    23    1
    51    21    51    1
    52    21    52    1
    53    22    53    1
    54    23    24   ar
    55    24    25   ar
    56    25    26   ar
    57    25    54    1
    58    26    55    1
    59    27    56    1
    60    27    57    1
    61    27    58    1
@<TRIPOS>MOLECULE
66555030
 58 61 0 0 0
SMALL
GASTEIGER

@<TRIPOS>ATOM
      1 S          -4.1552   -1.3054    3.7882 S.2     1  UNL1       -0.0926
      2 O           3.7389    2.0185   -0.6934 O.3     1  UNL1       -0.3733
      3 O          -4.8361    0.6778    0.5411 O.3     1  UNL1       -0.4941
      4 N           0.5529   -1.8606   -0.4523 N.ar    1  UNL1       -0.2593
      5 N          -1.4031   -0.1338    2.6236 N.4     1  UNL1        0.2308
      6 C           3.8512    1.2252    0.4942 C.3     1  UNL1        0.0704
      7 C           1.4231    0.3747    0.1125 C.3     1  UNL1        0.0224
      8 C           2.4643    0.9676    1.1076 C.3     1  UNL1       -0.0124
      9 C           4.7367    2.0144    1.4725 C.3     1  UNL1       -0.0237
     10 C           4.7153   -0.0215    0.2655 C.3     1  UNL1       -0.0237
     11 C           1.4573    1.2951   -1.1383 C.3     1  UNL1       -0.0181
     12 C           6.1616    1.8150    0.9589 C.3     1  UNL1       -0.0504
     13 C           6.1397    0.5192    0.1522 C.3     1  UNL1       -0.0504
     14 C           0.0115    0.4968    0.7385 C.3     1  UNL1       -0.0013
     15 C           2.8671    1.4887   -1.6863 C.3     1  UNL1        0.0492
     16 C           1.6501   -1.1244   -0.1669 C.ar    1  UNL1        0.0478
     17 C          -0.0619   -0.2494    2.0632 C.3     1  UNL1       -0.0325
     18 C           2.9364   -1.6370   -0.1153 C.ar    1  UNL1       -0.0398
     19 C           3.1075   -2.9925   -0.3735 C.ar    1  UNL1       -0.0586
     20 C           0.7583   -3.1743   -0.6974 C.ar    1  UNL1        0.0279
     21 C          -2.3926   -0.7130    1.7261 C.3     1  UNL1        0.0021
     22 C           2.0028   -3.7827   -0.6710 C.ar    1  UNL1       -0.0436
     23 C          -3.7886   -0.5899    2.2763 C.ar    1  UNL1        0.0756
     24 C          -4.8812    0.0432    1.7255 C.ar    1  UNL1        0.1353
     25 C          -6.0342   -0.0603    2.5561 C.ar    1  UNL1       -0.0124
     26 C          -5.7793   -0.7686    3.7096 C.ar    1  UNL1       -0.0203
     27 C          -6.0375    0.7118   -0.2419 C.3     1  UNL1        0.0788
     28 H          -1.6204    0.8521    2.7690 H       1  UNL1        0.2017
     29 H          -1.4310   -0.6390    3.5093 H       1  UNL1        0.2017
     30 H           2.0834    1.8968    1.4769 H       1  UNL1        0.0302
     31 H           2.6010    0.2383    1.8785 H       1  UNL1        0.0302
     32 H           4.6369    1.6291    2.4657 H       1  UNL1        0.0293
     33 H           4.4653    3.0484    1.5180 H       1  UNL1        0.0293
     34 H           4.4274   -0.5217   -0.6355 H       1  UNL1        0.0293
     35 H           4.6127   -0.7389    1.0527 H       1  UNL1        0.0293
     36 H           1.0594    2.2516   -0.8707 H       1  UNL1        0.0296
     37 H           0.8746    0.8247   -1.9025 H       1  UNL1        0.0296
     38 H           6.8441    1.7313    1.7787 H       1  UNL1        0.0266
     39 H           6.4830    2.6431    0.3623 H       1  UNL1        0.0266
     40 H           6.3834    0.7140   -0.8713 H       1  UNL1        0.0266
     41 H           6.8570   -0.1844    0.5201 H       1  UNL1        0.0266
     42 H          -0.7081    0.0833    0.0632 H       1  UNL1        0.0326
     43 H          -0.1948    1.5314    0.9172 H       1  UNL1        0.0326
     44 H           3.2463    0.5437   -2.0149 H       1  UNL1        0.0560
     45 H           2.8212    2.1815   -2.5004 H       1  UNL1        0.0560
     46 H           0.1675   -1.2821    1.9020 H       1  UNL1        0.0814
     47 H           0.6435    0.1751    2.7466 H       1  UNL1        0.0814
     48 H           3.7420   -1.0318    0.1077 H       1  UNL1        0.0636
     49 H           4.0506   -3.4104   -0.3443 H       1  UNL1        0.0619
     50 H          -0.0624   -3.7598   -0.9176 H       1  UNL1        0.0829
     51 H          -2.1666   -1.7492    1.5841 H       1  UNL1        0.0873
     52 H          -2.3528   -0.1795    0.7994 H       1  UNL1        0.0873
     53 H           2.1066   -4.7908   -0.8661 H       1  UNL1        0.0633
     54 H          -6.9527    0.3476    2.3210 H       1  UNL1        0.0659
     55 H          -6.4840   -0.9539    4.4403 H       1  UNL1        0.0694
     56 H          -5.8554    1.2452   -1.1515 H       1  UNL1        0.0660
     57 H          -6.8100    1.2035    0.3115 H       1  UNL1        0.0660
     58 H          -6.3431   -0.2880   -0.4698 H       1  UNL1        0.0660
@<TRIPOS>UNITY_ATOM_ATTR
5 1
charge 1
@<TRIPOS>BOND
     1     1    23   ar
     2     1    26   ar
     3     2     6    1
     4     2    15    1
     5     3    24    1
     6     3    27    1
     7     4    16   ar
     8     4    20   ar
     9     5    17    1
    10     5    21    1
    11     5    28    1
    12     5    29    1
    13     6     8    1
    14     6     9    1
    15     6    10    1
    16     7     8    1
    17     7    11    1
    18     7    14    1
    19     7    16    1
    20     8    30    1
    21     8    31    1
    22     9    12    1
    23     9    32    1
    24     9    33    1
    25    10    13    1
    26    10    34    1
    27    10    35    1
    28    11    15    1
    29    11    36    1
    30    11    37    1
    31    12    13    1
    32    12    38    1
    33    12    39    1
    34    13    40    1
    35    13    41    1
    36    14    17    1
    37    14    42    1
    38    14    43    1
    39    15    44    1
    40    15    45    1
    41    16    18   ar
    42    17    46    1
    43    17    47    1
    44    18    19   ar
    45    18    48    1
    46    19    22   ar
    47    19    49    1
    48    20    22   ar
    49    20    50    1
    50    21    23    1
    51    21    51    1
    52    21    52    1
    53    22    53    1
    54    23    24   ar
    55    24    25   ar
    56    25    26   ar
    57    25    54    1
    58    26    55    1
    59    27    56    1
    60    27    57    1
    61    27    58    1
@<TRIPOS>MOLECULE
66555030
 58 61 0 0 0
SMALL
GASTEIGER

@<TRIPOS>ATOM
      1 S          -4.2798    2.1174    2.8260 S.2     1  UNL1       -0.0926
      2 O           3.7389    2.0185   -0.6934 O.3     1  UNL1       -0.3733
      3 O          -3.5825    5.9172    2.6989 O.3     1  UNL1       -0.4941
      4 N           1.0096   -1.9957    0.6441 N.ar    1  UNL1       -0.2593
      5 N          -1.6674    2.0414    1.6033 N.4     1  UNL1        0.2308
      6 C           3.8512    1.2252    0.4942 C.3     1  UNL1        0.0704
      7 C           1.4231    0.3747    0.1125 C.3     1  UNL1        0.0224
      8 C           2.4643    0.9676    1.1076 C.3     1  UNL1       -0.0124
      9 C           4.7367    2.0144    1.4725 C.3     1  UNL1       -0.0237
     10 C           4.7153   -0.0215    0.2655 C.3     1  UNL1       -0.0237
     11 C           1.4573    1.2951   -1.1383 C.3     1  UNL1       -0.0181
     12 C           6.1616    1.8150    0.9589 C.3     1  UNL1       -0.0504
     13 C           6.1397    0.5192    0.1522 C.3     1  UNL1       -0.0504
     14 C           0.0115    0.4968    0.7385 C.3     1  UNL1       -0.0013
     15 C           2.8671    1.4887   -1.6863 C.3     1  UNL1        0.0492
     16 C           1.6501   -1.1244   -0.1669 C.ar    1  UNL1        0.0478
     17 C          -0.3430    1.9539    0.9995 C.3     1  UNL1       -0.0325
     18 C           2.4788   -1.5020   -1.2112 C.ar    1  UNL1       -0.0398
     19 C           2.6617   -2.8617   -1.4377 C.ar    1  UNL1       -0.0586
     20 C           1.2117   -3.3090    0.3936 C.ar    1  UNL1        0.0279
     21 C          -2.0362    3.4286    1.8475 C.3     1  UNL1        0.0021
     22 C           2.0195   -3.7888   -0.6246 C.ar    1  UNL1       -0.0436
     23 C          -3.3943    3.5433    2.4871 C.ar    1  UNL1        0.0756
     24 C          -4.0777    4.6783    2.8650 C.ar    1  UNL1        0.1353
     25 C          -5.3448    4.3729    3.4407 C.ar    1  UNL1       -0.0124
     26 C          -5.5816    3.0166    3.4806 C.ar    1  UNL1       -0.0203
     27 C          -4.5166    6.9834    2.4792 C.3     1  UNL1        0.0788
     28 H          -1.6646    1.5356    2.4891 H       1  UNL1        0.2017
     29 H          -2.3460    1.6317    0.9615 H       1  UNL1        0.2017
     30 H           2.0834    1.8968    1.4769 H       1  UNL1        0.0302
     31 H           2.6010    0.2383    1.8785 H       1  UNL1        0.0302
     32 H           4.6369    1.6291    2.4657 H       1  UNL1        0.0293
     33 H           4.4653    3.0484    1.5180 H       1  UNL1        0.0293
     34 H           4.4274   -0.5217   -0.6355 H       1  UNL1        0.0293
     35 H           4.6127   -0.7389    1.0527 H       1  UNL1        0.0293
     36 H           1.0594    2.2516   -0.8707 H       1  UNL1        0.0296
     37 H           0.8746    0.8247   -1.9025 H       1  UNL1        0.0296
     38 H           6.8441    1.7313    1.7787 H       1  UNL1        0.0266
     39 H           6.4830    2.6431    0.3623 H       1  UNL1        0.0266
     40 H           6.3834    0.7140   -0.8713 H       1  UNL1        0.0266
     41 H           6.8570   -0.1844    0.5201 H       1  UNL1        0.0266
     42 H          -0.0089   -0.0399    1.6640 H       1  UNL1        0.0326
     43 H          -0.7025    0.0887    0.0539 H       1  UNL1        0.0326
     44 H           3.2463    0.5437   -2.0149 H       1  UNL1        0.0560
     45 H           2.8212    2.1815   -2.5004 H       1  UNL1        0.0560
     46 H           0.3788    2.3813    1.6638 H       1  UNL1        0.0814
     47 H          -0.3422    2.4885    0.0726 H       1  UNL1        0.0814
     48 H           2.9456   -0.7964   -1.8022 H       1  UNL1        0.0636
     49 H           3.2717   -3.1813   -2.2064 H       1  UNL1        0.0619
     50 H           0.7349   -3.9962    0.9981 H       1  UNL1        0.0829
     51 H          -2.0473    3.9530    0.9149 H       1  UNL1        0.0873
     52 H          -1.3168    3.8502    2.5181 H       1  UNL1        0.0873
     53 H           2.1408   -4.8026   -0.7748 H       1  UNL1        0.0633
     54 H          -6.0073    5.0843    3.7871 H       1  UNL1        0.0659
     55 H          -6.4423    2.5923    3.8604 H       1  UNL1        0.0694
     56 H          -3.9853    7.9052    2.3648 H       1  UNL1        0.0660
     57 H          -5.1793    7.0551    3.3163 H       1  UNL1        0.0660
     58 H          -5.0820    6.7852    1.5927 H       1  UNL1        0.0660
@<TRIPOS>UNITY_ATOM_ATTR
5 1
charge 1
@<TRIPOS>BOND
     1     1    23   ar
     2     1    26   ar
     3     2     6    1
     4     2    15    1
     5     3    24    1
     6     3    27    1
     7     4    16   ar
     8     4    20   ar
     9     5    17    1
    10     5    21    1
    11     5    28    1
    12     5    29    1
    13     6     8    1
    14     6     9    1
    15     6    10    1
    16     7     8    1
    17     7    11    1
    18     7    14    1
    19     7    16    1
    20     8    30    1
    21     8    31    1
    22     9    12    1
    23     9    32    1
    24     9    33    1
    25    10    13    1
    26    10    34    1
    27    10    35    1
    28    11    15    1
    29    11    36    1
    30    11    37    1
    31    12    13    1
    32    12    38    1
    33    12    39    1
    34    13    40    1
    35    13    41    1
    36    14    17    1
    37    14    42    1
    38    14    43    1
    39    15    44    1
    40    15    45    1
    41    16    18   ar
    42    17    46    1
    43    17    47    1
    44    18    19   ar
    45    18    48    1
    46    19    22   ar
    47    19    49    1
    48    20    22   ar
    49    20    50    1
    50    21    23    1
    51    21    51    1
    52    21    52    1
    53    22    53    1
    54    23    24   ar
    55    24    25   ar
    56    25    26   ar
    57    25    54    1
    58    26    55    1
    59    27    56    1
    60    27    57    1
    61    27    58    1
@<TRIPOS>MOLECULE
66555030
 58 61 0 0 0
SMALL
GASTEIGER

@<TRIPOS>ATOM
      1 S           0.5853    2.7242    3.1433 S.2     1  UNL1       -0.0926
      2 O           3.7389    2.0185   -0.6934 O.3     1  UNL1       -0.3733
      3 O          -1.8533    1.5030    5.8824 O.3     1  UNL1       -0.4941
      4 N           2.8473   -1.4685   -0.6918 N.ar    1  UNL1       -0.2593
      5 N          -1.4031   -0.1338    2.6236 N.4     1  UNL1        0.2308
      6 C           3.8512    1.2252    0.4942 C.3     1  UNL1        0.0704
      7 C           1.4231    0.3747    0.1125 C.3     1  UNL1        0.0224
      8 C           2.4643    0.9676    1.1076 C.3     1  UNL1       -0.0124
      9 C           4.7367    2.0144    1.4725 C.3     1  UNL1       -0.0237
     10 C           4.7153   -0.0215    0.2655 C.3     1  UNL1       -0.0237
     11 C           1.4573    1.2951   -1.1383 C.3     1  UNL1       -0.0181
     12 C           6.1616    1.8150    0.9589 C.3     1  UNL1       -0.0504
     13 C           6.1397    0.5192    0.1522 C.3     1  UNL1       -0.0504
     14 C           0.0115    0.4968    0.7385 C.3     1  UNL1       -0.0013
     15 C           2.8671    1.4887   -1.6863 C.3     1  UNL1        0.0492
     16 C           1.6501   -1.1244   -0.1669 C.ar    1  UNL1        0.0478
     17 C          -0.0619   -0.2494    2.0632 C.3     1  UNL1       -0.0325
     18 C           0.6425   -2.0294    0.1261 C.ar    1  UNL1       -0.0398
     19 C           0.8792   -3.3741   -0.1364 C.ar    1  UNL1       -0.0586
     20 C           3.0409   -2.7846   -0.9337 C.ar    1  UNL1        0.0279
     21 C          -1.7559    1.2618    2.8424 C.3     1  UNL1        0.0021
     22 C           2.0987   -3.7672   -0.6762 C.ar    1  UNL1       -0.0436
     23 C          -0.7968    1.9416    3.7831 C.ar    1  UNL1        0.0756
     24 C          -0.8575    2.0400    5.1559 C.ar    1  UNL1        0.1353
     25 C           0.2451    2.7680    5.6892 C.ar    1  UNL1       -0.0124
     26 C           1.1065    3.1978    4.7041 C.ar    1  UNL1       -0.0203
     27 C          -2.2119    2.1582    7.1070 C.3     1  UNL1        0.0788
     28 H          -1.4370   -0.6305    3.5138 H       1  UNL1        0.2017
     29 H          -2.0678   -0.5387    1.9644 H       1  UNL1        0.2017
     30 H           2.0834    1.8968    1.4769 H       1  UNL1        0.0302
     31 H           2.6010    0.2383    1.8785 H       1  UNL1        0.0302
     32 H           4.6369    1.6291    2.4657 H       1  UNL1        0.0293
     33 H           4.4653    3.0484    1.5180 H       1  UNL1        0.0293
     34 H           4.4274   -0.5217   -0.6355 H       1  UNL1        0.0293
     35 H           4.6127   -0.7389    1.0527 H       1  UNL1        0.0293
     36 H           1.0594    2.2516   -0.8707 H       1  UNL1        0.0296
     37 H           0.8746    0.8247   -1.9025 H       1  UNL1        0.0296
     38 H           6.8441    1.7313    1.7787 H       1  UNL1        0.0266
     39 H           6.4830    2.6431    0.3623 H       1  UNL1        0.0266
     40 H           6.3834    0.7140   -0.8713 H       1  UNL1        0.0266
     41 H           6.8570   -0.1844    0.5201 H       1  UNL1        0.0266
     42 H          -0.7081    0.0833    0.0632 H       1  UNL1        0.0326
     43 H          -0.1948    1.5314    0.9172 H       1  UNL1        0.0326
     44 H           3.2463    0.5437   -2.0149 H       1  UNL1        0.0560
     45 H           2.8212    2.1815   -2.5004 H       1  UNL1        0.0560
     46 H           0.1675   -1.2821    1.9020 H       1  UNL1        0.0814
     47 H           0.6435    0.1751    2.7466 H       1  UNL1        0.0814
     48 H          -0.2552   -1.7152    0.5266 H       1  UNL1        0.0636
     49 H           0.1525   -4.0777    0.0686 H       1  UNL1        0.0619
     50 H           3.9463   -3.0751   -1.3349 H       1  UNL1        0.0829
     51 H          -2.7405    1.3087    3.2585 H       1  UNL1        0.0873
     52 H          -1.7111    1.7671    1.9004 H       1  UNL1        0.0873
     53 H           2.2959   -4.7597   -0.8788 H       1  UNL1        0.0633
     54 H           0.3822    2.9517    6.6955 H       1  UNL1        0.0659
     55 H           1.9648    3.7413    4.8853 H       1  UNL1        0.0694
     56 H          -3.0124    1.6249    7.5757 H       1  UNL1        0.0660
     57 H          -2.5252    3.1596    6.8971 H       1  UNL1        0.0660
     58 H          -1.3656    2.1790    7.7615 H       1  UNL1        0.0660
@<TRIPOS>UNITY_ATOM_ATTR
5 1
charge 1
@<TRIPOS>BOND
     1     1    23   ar
     2     1    26   ar
     3     2     6    1
     4     2    15    1
     5     3    24    1
     6     3    27    1
     7     4    16   ar
     8     4    20   ar
     9     5    17    1
    10     5    21    1
    11     5    28    1
    12     5    29    1
    13     6     8    1
    14     6     9    1
    15     6    10    1
    16     7     8    1
    17     7    11    1
    18     7    14    1
    19     7    16    1
    20     8    30    1
    21     8    31    1
    22     9    12    1
    23     9    32    1
    24     9    33    1
    25    10    13    1
    26    10    34    1
    27    10    35    1
    28    11    15    1
    29    11    36    1
    30    11    37    1
    31    12    13    1
    32    12    38    1
    33    12    39    1
    34    13    40    1
    35    13    41    1
    36    14    17    1
    37    14    42    1
    38    14    43    1
    39    15    44    1
    40    15    45    1
    41    16    18   ar
    42    17    46    1
    43    17    47    1
    44    18    19   ar
    45    18    48    1
    46    19    22   ar
    47    19    49    1
    48    20    22   ar
    49    20    50    1
    50    21    23    1
    51    21    51    1
    52    21    52    1
    53    22    53    1
    54    23    24   ar
    55    24    25   ar
    56    25    26   ar
    57    25    54    1
    58    26    55    1
    59    27    56    1
    60    27    57    1
    61    27    58    1
@<TRIPOS>MOLECULE
66555030
 58 61 0 0 0
SMALL
GASTEIGER

@<TRIPOS>ATOM
      1 S          -3.5334   -2.6655    0.7426 S.2     1  UNL1       -0.0926
      2 O           3.7389    2.0185   -0.6934 O.3     1  UNL1       -0.3733
      3 O          -4.2079   -0.6785   -2.5036 O.3     1  UNL1       -0.4941
      4 N           1.8907   -1.4719   -1.4509 N.ar    1  UNL1       -0.2593
      5 N          -0.7778   -1.4999   -0.4201 N.4     1  UNL1        0.2308
      6 C           3.8512    1.2252    0.4942 C.3     1  UNL1        0.0704
      7 C           1.4231    0.3747    0.1125 C.3     1  UNL1        0.0224
      8 C           2.4643    0.9676    1.1076 C.3     1  UNL1       -0.0124
      9 C           4.7367    2.0144    1.4725 C.3     1  UNL1       -0.0237
     10 C           4.7153   -0.0215    0.2655 C.3     1  UNL1       -0.0237
     11 C           1.4573    1.2951   -1.1383 C.3     1  UNL1       -0.0181
     12 C           6.1616    1.8150    0.9589 C.3     1  UNL1       -0.0504
     13 C           6.1397    0.5192    0.1522 C.3     1  UNL1       -0.0504
     14 C           0.0115    0.4968    0.7385 C.3     1  UNL1       -0.0013
     15 C           2.8671    1.4887   -1.6863 C.3     1  UNL1        0.0492
     16 C           1.6501   -1.1244   -0.1669 C.ar    1  UNL1        0.0478
     17 C          -1.0463   -0.0856   -0.1884 C.3     1  UNL1       -0.0325
     18 C           1.5996   -2.0257    0.8843 C.ar    1  UNL1       -0.0398
     19 C           1.8099   -3.3703    0.5992 C.ar    1  UNL1       -0.0586
     20 C           2.0900   -2.7877   -1.6896 C.ar    1  UNL1        0.0279
     21 C          -1.7684   -2.0760   -1.3184 C.3     1  UNL1        0.0021
     22 C           2.0605   -3.7667   -0.7097 C.ar    1  UNL1       -0.0436
     23 C          -3.1643   -1.9499   -0.7687 C.ar    1  UNL1        0.0756
     24 C          -4.2551   -1.3138   -1.3196 C.ar    1  UNL1        0.1353
     25 C          -5.4088   -1.4149   -0.4896 C.ar    1  UNL1       -0.0124
     26 C          -5.1561   -2.1246    0.6636 C.ar    1  UNL1       -0.0203
     27 C          -5.4073   -0.0415   -2.9654 C.3     1  UNL1        0.0788
     28 H          -0.8065   -1.9956    0.4708 H       1  UNL1        0.2017
     29 H           0.1432   -1.5909   -0.8488 H       1  UNL1        0.2017
     30 H           2.0834    1.8968    1.4769 H       1  UNL1        0.0302
     31 H           2.6010    0.2383    1.8785 H       1  UNL1        0.0302
     32 H           4.6369    1.6291    2.4657 H       1  UNL1        0.0293
     33 H           4.4653    3.0484    1.5180 H       1  UNL1        0.0293
     34 H           4.4274   -0.5217   -0.6355 H       1  UNL1        0.0293
     35 H           4.6127   -0.7389    1.0527 H       1  UNL1        0.0293
     36 H           1.0594    2.2516   -0.8707 H       1  UNL1        0.0296
     37 H           0.8746    0.8247   -1.9025 H       1  UNL1        0.0296
     38 H           6.8441    1.7313    1.7787 H       1  UNL1        0.0266
     39 H           6.4830    2.6431    0.3623 H       1  UNL1        0.0266
     40 H           6.3834    0.7140   -0.8713 H       1  UNL1        0.0266
     41 H           6.8570   -0.1844    0.5201 H       1  UNL1        0.0266
     42 H          -0.2061    1.5298    0.9131 H       1  UNL1        0.0326
     43 H          -0.0026   -0.0489    1.6588 H       1  UNL1        0.0326
     44 H           3.2463    0.5437   -2.0149 H       1  UNL1        0.0560
     45 H           2.8212    2.1815   -2.5004 H       1  UNL1        0.0560
     46 H          -2.0110    0.0235    0.2613 H       1  UNL1        0.0814
     47 H          -1.0219    0.4356   -1.1225 H       1  UNL1        0.0814
     48 H           1.4119   -1.7091    1.8484 H       1  UNL1        0.0636
     49 H           1.7800   -4.0712    1.3561 H       1  UNL1        0.0619
     50 H           2.2755   -3.0808   -2.6615 H       1  UNL1        0.0829
     51 H          -1.5449   -3.1127   -1.4610 H       1  UNL1        0.0873
     52 H          -1.7269   -1.5420   -2.2447 H       1  UNL1        0.0873
     53 H           2.2196   -4.7591   -0.9440 H       1  UNL1        0.0633
     54 H          -6.3261   -1.0047   -0.7248 H       1  UNL1        0.0659
     55 H          -5.8616   -2.3086    1.3939 H       1  UNL1        0.0694
     56 H          -5.2238    0.4203   -3.9130 H       1  UNL1        0.0660
     57 H          -5.7107    0.7025   -2.2588 H       1  UNL1        0.0660
     58 H          -6.1821   -0.7722   -3.0688 H       1  UNL1        0.0660
@<TRIPOS>UNITY_ATOM_ATTR
5 1
charge 1
@<TRIPOS>BOND
     1     1    23   ar
     2     1    26   ar
     3     2     6    1
     4     2    15    1
     5     3    24    1
     6     3    27    1
     7     4    16   ar
     8     4    20   ar
     9     5    17    1
    10     5    21    1
    11     5    28    1
    12     5    29    1
    13     6     8    1
    14     6     9    1
    15     6    10    1
    16     7     8    1
    17     7    11    1
    18     7    14    1
    19     7    16    1
    20     8    30    1
    21     8    31    1
    22     9    12    1
    23     9    32    1
    24     9    33    1
    25    10    13    1
    26    10    34    1
    27    10    35    1
    28    11    15    1
    29    11    36    1
    30    11    37    1
    31    12    13    1
    32    12    38    1
    33    12    39    1
    34    13    40    1
    35    13    41    1
    36    14    17    1
    37    14    42    1
    38    14    43    1
    39    15    44    1
    40    15    45    1
    41    16    18   ar
    42    17    46    1
    43    17    47    1
    44    18    19   ar
    45    18    48    1
    46    19    22   ar
    47    19    49    1
    48    20    22   ar
    49    20    50    1
    50    21    23    1
    51    21    51    1
    52    21    52    1
    53    22    53    1
    54    23    24   ar
    55    24    25   ar
    56    25    26   ar
    57    25    54    1
    58    26    55    1
    59    27    56    1
    60    27    57    1
    61    27    58    1
@<TRIPOS>MOLECULE
66555030
 58 61 0 0 0
SMALL
GASTEIGER

@<TRIPOS>ATOM
      1 S          -3.3977   -1.1922    0.7490 S.2     1  UNL1       -0.0926
      2 O           3.7389    2.0185   -0.6934 O.3     1  UNL1       -0.3733
      3 O          -4.4212   -2.9933   -2.5142 O.3     1  UNL1       -0.4941
      4 N           1.8907   -1.4719   -1.4509 N.ar    1  UNL1       -0.2593
      5 N          -0.7778   -1.4999   -0.4201 N.4     1  UNL1        0.2308
      6 C           3.8512    1.2252    0.4942 C.3     1  UNL1        0.0704
      7 C           1.4231    0.3747    0.1125 C.3     1  UNL1        0.0224
      8 C           2.4643    0.9676    1.1076 C.3     1  UNL1       -0.0124
      9 C           4.7367    2.0144    1.4725 C.3     1  UNL1       -0.0237
     10 C           4.7153   -0.0215    0.2655 C.3     1  UNL1       -0.0237
     11 C           1.4573    1.2951   -1.1383 C.3     1  UNL1       -0.0181
     12 C           6.1616    1.8150    0.9589 C.3     1  UNL1       -0.0504
     13 C           6.1397    0.5192    0.1522 C.3     1  UNL1       -0.0504
     14 C           0.0115    0.4968    0.7385 C.3     1  UNL1       -0.0013
     15 C           2.8671    1.4887   -1.6863 C.3     1  UNL1        0.0492
     16 C           1.6501   -1.1244   -0.1669 C.ar    1  UNL1        0.0478
     17 C          -1.0463   -0.0856   -0.1884 C.3     1  UNL1       -0.0325
     18 C           1.5996   -2.0257    0.8843 C.ar    1  UNL1       -0.0398
     19 C           1.8099   -3.3703    0.5992 C.ar    1  UNL1       -0.0586
     20 C           2.0900   -2.7877   -1.6896 C.ar    1  UNL1        0.0279
     21 C          -1.7684   -2.0760   -1.3184 C.3     1  UNL1        0.0021
     22 C           2.0605   -3.7667   -0.7097 C.ar    1  UNL1       -0.0436
     23 C          -3.1643   -1.9499   -0.7687 C.ar    1  UNL1        0.0756
     24 C          -4.3525   -2.3713   -1.3243 C.ar    1  UNL1        0.1353
     25 C          -5.4691   -2.0675   -0.4929 C.ar    1  UNL1       -0.0124
     26 C          -5.0919   -1.4261    0.6662 C.ar    1  UNL1       -0.0203
     27 C          -5.7192   -3.3718   -2.9933 C.3     1  UNL1        0.0788
     28 H          -0.8065   -1.9956    0.4708 H       1  UNL1        0.2017
     29 H           0.1432   -1.5909   -0.8488 H       1  UNL1        0.2017
     30 H           2.0834    1.8968    1.4769 H       1  UNL1        0.0302
     31 H           2.6010    0.2383    1.8785 H       1  UNL1        0.0302
     32 H           4.6369    1.6291    2.4657 H       1  UNL1        0.0293
     33 H           4.4653    3.0484    1.5180 H       1  UNL1        0.0293
     34 H           4.4274   -0.5217   -0.6355 H       1  UNL1        0.0293
     35 H           4.6127   -0.7389    1.0527 H       1  UNL1        0.0293
     36 H           1.0594    2.2516   -0.8707 H       1  UNL1        0.0296
     37 H           0.8746    0.8247   -1.9025 H       1  UNL1        0.0296
     38 H           6.8441    1.7313    1.7787 H       1  UNL1        0.0266
     39 H           6.4830    2.6431    0.3623 H       1  UNL1        0.0266
     40 H           6.3834    0.7140   -0.8713 H       1  UNL1        0.0266
     41 H           6.8570   -0.1844    0.5201 H       1  UNL1        0.0266
     42 H          -0.2061    1.5298    0.9131 H       1  UNL1        0.0326
     43 H          -0.0026   -0.0489    1.6588 H       1  UNL1        0.0326
     44 H           3.2463    0.5437   -2.0149 H       1  UNL1        0.0560
     45 H           2.8212    2.1815   -2.5004 H       1  UNL1        0.0560
     46 H          -2.0110    0.0235    0.2613 H       1  UNL1        0.0814
     47 H          -1.0219    0.4356   -1.1225 H       1  UNL1        0.0814
     48 H           1.4119   -1.7091    1.8484 H       1  UNL1        0.0636
     49 H           1.7800   -4.0712    1.3561 H       1  UNL1        0.0619
     50 H           2.2755   -3.0808   -2.6615 H       1  UNL1        0.0829
     51 H          -1.5449   -3.1127   -1.4610 H       1  UNL1        0.0873
     52 H          -1.7269   -1.5420   -2.2447 H       1  UNL1        0.0873
     53 H           2.2196   -4.7591   -0.9440 H       1  UNL1        0.0633
     54 H          -6.4457   -2.3008   -0.7312 H       1  UNL1        0.0659
     55 H          -5.7526   -1.1222    1.3984 H       1  UNL1        0.0694
     56 H          -5.6221   -3.8534   -3.9439 H       1  UNL1        0.0660
     57 H          -6.3298   -2.4992   -3.0963 H       1  UNL1        0.0660
     58 H          -6.1740   -4.0452   -2.2971 H       1  UNL1        0.0660
@<TRIPOS>UNITY_ATOM_ATTR
5 1
charge 1
@<TRIPOS>BOND
     1     1    23   ar
     2     1    26   ar
     3     2     6    1
     4     2    15    1
     5     3    24    1
     6     3    27    1
     7     4    16   ar
     8     4    20   ar
     9     5    17    1
    10     5    21    1
    11     5    28    1
    12     5    29    1
    13     6     8    1
    14     6     9    1
    15     6    10    1
    16     7     8    1
    17     7    11    1
    18     7    14    1
    19     7    16    1
    20     8    30    1
    21     8    31    1
    22     9    12    1
    23     9    32    1
    24     9    33    1
    25    10    13    1
    26    10    34    1
    27    10    35    1
    28    11    15    1
    29    11    36    1
    30    11    37    1
    31    12    13    1
    32    12    38    1
    33    12    39    1
    34    13    40    1
    35    13    41    1
    36    14    17    1
    37    14    42    1
    38    14    43    1
    39    15    44    1
    40    15    45    1
    41    16    18   ar
    42    17    46    1
    43    17    47    1
    44    18    19   ar
    45    18    48    1
    46    19    22   ar
    47    19    49    1
    48    20    22   ar
    49    20    50    1
    50    21    23    1
    51    21    51    1
    52    21    52    1
    53    22    53    1
    54    23    24   ar
    55    24    25   ar
    56    25    26   ar
    57    25    54    1
    58    26    55    1
    59    27    56    1
    60    27    57    1
    61    27    58    1
@<TRIPOS>MOLECULE
66555030
 58 61 0 0 0
SMALL
GASTEIGER

@<TRIPOS>ATOM
      1 S          -4.0606   -1.2362    3.8598 S.2     1  UNL1       -0.0926
      2 O           3.7389    2.0185   -0.6934 O.3     1  UNL1       -0.3733
      3 O          -4.9391    0.7653    0.6718 O.3     1  UNL1       -0.4941
      4 N           0.7973   -1.7152   -1.0334 N.ar    1  UNL1       -0.2593
      5 N          -2.3661    0.0561    0.4148 N.4     1  UNL1        0.2308
      6 C           3.8512    1.2252    0.4942 C.3     1  UNL1        0.0704
      7 C           1.4231    0.3747    0.1125 C.3     1  UNL1        0.0224
      8 C           2.4643    0.9676    1.1076 C.3     1  UNL1       -0.0124
      9 C           4.7367    2.0144    1.4725 C.3     1  UNL1       -0.0237
     10 C           4.7153   -0.0215    0.2655 C.3     1  UNL1       -0.0237
     11 C           1.4573    1.2951   -1.1383 C.3     1  UNL1       -0.0181
     12 C           6.1616    1.8150    0.9589 C.3     1  UNL1       -0.0504
     13 C           6.1397    0.5192    0.1522 C.3     1  UNL1       -0.0504
     14 C           0.0115    0.4968    0.7385 C.3     1  UNL1       -0.0013
     15 C           2.8671    1.4887   -1.6863 C.3     1  UNL1        0.0492
     16 C           1.6501   -1.1244   -0.1669 C.ar    1  UNL1        0.0478
     17 C          -1.0463   -0.0856   -0.1884 C.3     1  UNL1       -0.0325
     18 C           2.6925   -1.7823    0.4660 C.ar    1  UNL1       -0.0398
     19 C           2.8712   -3.1336    0.1916 C.ar    1  UNL1       -0.0586
     20 C           1.0020   -3.0297   -1.2753 C.ar    1  UNL1        0.0279
     21 C          -2.4270   -0.6295    1.6979 C.3     1  UNL1        0.0021
     22 C           2.0142   -3.7766   -0.6946 C.ar    1  UNL1       -0.0436
     23 C          -3.7871   -0.5114    2.3327 C.ar    1  UNL1        0.0756
     24 C          -4.9116    0.1237    1.8530 C.ar    1  UNL1        0.1353
     25 C          -6.0121    0.0139    2.7514 C.ar    1  UNL1       -0.0124
     26 C          -5.6869   -0.7008    3.8831 C.ar    1  UNL1       -0.0203
     27 C          -5.8224    1.8883    0.5448 C.3     1  UNL1        0.0788
     28 H          -3.0643   -0.3447   -0.2115 H       1  UNL1        0.2017
     29 H          -2.5508    1.0478    0.5659 H       1  UNL1        0.2017
     30 H           2.0834    1.8968    1.4769 H       1  UNL1        0.0302
     31 H           2.6010    0.2383    1.8785 H       1  UNL1        0.0302
     32 H           4.6369    1.6291    2.4657 H       1  UNL1        0.0293
     33 H           4.4653    3.0484    1.5180 H       1  UNL1        0.0293
     34 H           4.4274   -0.5217   -0.6355 H       1  UNL1        0.0293
     35 H           4.6127   -0.7389    1.0527 H       1  UNL1        0.0293
     36 H           1.0594    2.2516   -0.8707 H       1  UNL1        0.0296
     37 H           0.8746    0.8247   -1.9025 H       1  UNL1        0.0296
     38 H           6.8441    1.7313    1.7787 H       1  UNL1        0.0266
     39 H           6.4830    2.6431    0.3623 H       1  UNL1        0.0266
     40 H           6.3834    0.7140   -0.8713 H       1  UNL1        0.0266
     41 H           6.8570   -0.1844    0.5201 H       1  UNL1        0.0266
     42 H          -0.2061    1.5298    0.9131 H       1  UNL1        0.0326
     43 H          -0.0026   -0.0489    1.6588 H       1  UNL1        0.0326
     44 H           3.2463    0.5437   -2.0149 H       1  UNL1        0.0560
     45 H           2.8212    2.1815   -2.5004 H       1  UNL1        0.0560
     46 H          -1.0252    0.4356   -1.1226 H       1  UNL1        0.0814
     47 H          -0.8415   -1.1235   -0.3488 H       1  UNL1        0.0814
     48 H           3.3166   -1.2850    1.1204 H       1  UNL1        0.0636
     49 H           3.6368   -3.6573    0.6439 H       1  UNL1        0.0619
     50 H           0.3649   -3.5059   -1.9329 H       1  UNL1        0.0829
     51 H          -1.7000   -0.1995    2.3548 H       1  UNL1        0.0873
     52 H          -2.2282   -1.6673    1.5296 H       1  UNL1        0.0873
     53 H           2.1285   -4.7787   -0.9131 H       1  UNL1        0.0633
     54 H          -6.9434    0.4221    2.5750 H       1  UNL1        0.0659
     55 H          -6.3458   -0.8912    4.6542 H       1  UNL1        0.0694
     56 H          -5.7399    2.2973   -0.4405 H       1  UNL1        0.0660
     57 H          -5.5564    2.6344    1.2641 H       1  UNL1        0.0660
     58 H          -6.8298    1.5709    0.7161 H       1  UNL1        0.0660
@<TRIPOS>UNITY_ATOM_ATTR
5 1
charge 1
@<TRIPOS>BOND
     1     1    23   ar
     2     1    26   ar
     3     2     6    1
     4     2    15    1
     5     3    24    1
     6     3    27    1
     7     4    16   ar
     8     4    20   ar
     9     5    17    1
    10     5    21    1
    11     5    28    1
    12     5    29    1
    13     6     8    1
    14     6     9    1
    15     6    10    1
    16     7     8    1
    17     7    11    1
    18     7    14    1
    19     7    16    1
    20     8    30    1
    21     8    31    1
    22     9    12    1
    23     9    32    1
    24     9    33    1
    25    10    13    1
    26    10    34    1
    27    10    35    1
    28    11    15    1
    29    11    36    1
    30    11    37    1
    31    12    13    1
    32    12    38    1
    33    12    39    1
    34    13    40    1
    35    13    41    1
    36    14    17    1
    37    14    42    1
    38    14    43    1
    39    15    44    1
    40    15    45    1
    41    16    18   ar
    42    17    46    1
    43    17    47    1
    44    18    19   ar
    45    18    48    1
    46    19    22   ar
    47    19    49    1
    48    20    22   ar
    49    20    50    1
    50    21    23    1
    51    21    51    1
    52    21    52    1
    53    22    53    1
    54    23    24   ar
    55    24    25   ar
    56    25    26   ar
    57    25    54    1
    58    26    55    1
    59    27    56    1
    60    27    57    1
    61    27    58    1
@<TRIPOS>MOLECULE
66555030
 58 61 0 0 0
SMALL
GASTEIGER

@<TRIPOS>ATOM
      1 S          -4.0684    2.7543    3.2098 S.2     1  UNL1       -0.0926
      2 O           3.7389    2.0185   -0.6934 O.3     1  UNL1       -0.3733
      3 O          -3.0858   -0.6646    4.7216 O.3     1  UNL1       -0.4941
      4 N           1.5734   -1.9572    0.8951 N.ar    1  UNL1       -0.2593
      5 N          -1.6674    2.0414    1.6033 N.4     1  UNL1        0.2308
      6 C           3.8512    1.2252    0.4942 C.3     1  UNL1        0.0704
      7 C           1.4231    0.3747    0.1125 C.3     1  UNL1        0.0224
      8 C           2.4643    0.9676    1.1076 C.3     1  UNL1       -0.0124
      9 C           4.7367    2.0144    1.4725 C.3     1  UNL1       -0.0237
     10 C           4.7153   -0.0215    0.2655 C.3     1  UNL1       -0.0237
     11 C           1.4573    1.2951   -1.1383 C.3     1  UNL1       -0.0181
     12 C           6.1616    1.8150    0.9589 C.3     1  UNL1       -0.0504
     13 C           6.1397    0.5192    0.1522 C.3     1  UNL1       -0.0504
     14 C           0.0115    0.4968    0.7385 C.3     1  UNL1       -0.0013
     15 C           2.8671    1.4887   -1.6863 C.3     1  UNL1        0.0492
     16 C           1.6501   -1.1244   -0.1669 C.ar    1  UNL1        0.0478
     17 C          -0.3430    1.9539    0.9995 C.3     1  UNL1       -0.0325
     18 C           1.9150   -1.5407   -1.4617 C.ar    1  UNL1       -0.0398
     19 C           2.1137   -2.8994   -1.6805 C.ar    1  UNL1       -0.0586
     20 C           1.7723   -3.2707    0.6437 C.ar    1  UNL1        0.0279
     21 C          -1.7056    1.3346    2.8758 C.3     1  UNL1        0.0021
     22 C           2.0424   -3.7875   -0.6130 C.ar    1  UNL1       -0.0436
     23 C          -3.0693    1.3967    3.5107 C.ar    1  UNL1        0.0756
     24 C          -3.6766    0.4823    4.3433 C.ar    1  UNL1        0.1353
     25 C          -4.9795    0.9020    4.7389 C.ar    1  UNL1       -0.0124
     26 C          -5.3182    2.1209    4.1941 C.ar    1  UNL1       -0.0203
     27 C          -1.7666   -0.9293    4.2242 C.3     1  UNL1        0.0788
     28 H          -2.3511    1.6266    0.9702 H       1  UNL1        0.2017
     29 H          -1.8858    3.0238    1.7693 H       1  UNL1        0.2017
     30 H           2.0834    1.8968    1.4769 H       1  UNL1        0.0302
     31 H           2.6010    0.2383    1.8785 H       1  UNL1        0.0302
     32 H           4.6369    1.6291    2.4657 H       1  UNL1        0.0293
     33 H           4.4653    3.0484    1.5180 H       1  UNL1        0.0293
     34 H           4.4274   -0.5217   -0.6355 H       1  UNL1        0.0293
     35 H           4.6127   -0.7389    1.0527 H       1  UNL1        0.0293
     36 H           1.0594    2.2516   -0.8707 H       1  UNL1        0.0296
     37 H           0.8746    0.8247   -1.9025 H       1  UNL1        0.0296
     38 H           6.8441    1.7313    1.7787 H       1  UNL1        0.0266
     39 H           6.4830    2.6431    0.3623 H       1  UNL1        0.0266
     40 H           6.3834    0.7140   -0.8713 H       1  UNL1        0.0266
     41 H           6.8570   -0.1844    0.5201 H       1  UNL1        0.0266
     42 H          -0.0089   -0.0399    1.6640 H       1  UNL1        0.0326
     43 H          -0.7025    0.0887    0.0539 H       1  UNL1        0.0326
     44 H           3.2463    0.5437   -2.0149 H       1  UNL1        0.0560
     45 H           2.8212    2.1815   -2.5004 H       1  UNL1        0.0560
     46 H           0.3788    2.3813    1.6638 H       1  UNL1        0.0814
     47 H          -0.3422    2.4885    0.0726 H       1  UNL1        0.0814
     48 H           1.9632   -0.8638   -2.2391 H       1  UNL1        0.0636
     49 H           2.3131   -3.2473   -2.6314 H       1  UNL1        0.0619
     50 H           1.7197   -3.9288    1.4369 H       1  UNL1        0.0829
     51 H          -0.9940    1.7790    3.5400 H       1  UNL1        0.0873
     52 H          -1.4715    0.3069    2.6918 H       1  UNL1        0.0873
     53 H           2.1863   -4.7999   -0.7525 H       1  UNL1        0.0633
     54 H          -5.5969    0.3568    5.3607 H       1  UNL1        0.0659
     55 H          -6.2191    2.5963    4.3596 H       1  UNL1        0.0694
     56 H          -1.4241   -1.8692    4.6042 H       1  UNL1        0.0660
     57 H          -1.1030   -0.1527    4.5425 H       1  UNL1        0.0660
     58 H          -1.7888   -0.9636    3.1550 H       1  UNL1        0.0660
@<TRIPOS>UNITY_ATOM_ATTR
5 1
charge 1
@<TRIPOS>BOND
     1     1    23   ar
     2     1    26   ar
     3     2     6    1
     4     2    15    1
     5     3    24    1
     6     3    27    1
     7     4    16   ar
     8     4    20   ar
     9     5    17    1
    10     5    21    1
    11     5    28    1
    12     5    29    1
    13     6     8    1
    14     6     9    1
    15     6    10    1
    16     7     8    1
    17     7    11    1
    18     7    14    1
    19     7    16    1
    20     8    30    1
    21     8    31    1
    22     9    12    1
    23     9    32    1
    24     9    33    1
    25    10    13    1
    26    10    34    1
    27    10    35    1
    28    11    15    1
    29    11    36    1
    30    11    37    1
    31    12    13    1
    32    12    38    1
    33    12    39    1
    34    13    40    1
    35    13    41    1
    36    14    17    1
    37    14    42    1
    38    14    43    1
    39    15    44    1
    40    15    45    1
    41    16    18   ar
    42    17    46    1
    43    17    47    1
    44    18    19   ar
    45    18    48    1
    46    19    22   ar
    47    19    49    1
    48    20    22   ar
    49    20    50    1
    50    21    23    1
    51    21    51    1
    52    21    52    1
    53    22    53    1
    54    23    24   ar
    55    24    25   ar
    56    25    26   ar
    57    25    54    1
    58    26    55    1
    59    27    56    1
    60    27    57    1
    61    27    58    1
@<TRIPOS>MOLECULE
66555030
 58 61 0 0 0
SMALL
GASTEIGER

@<TRIPOS>ATOM
      1 S          -5.6941   -1.7630    0.4751 S.2     1  UNL1       -0.0926
      2 O           3.7389    2.0185   -0.6934 O.3     1  UNL1       -0.3733
      3 O          -4.9152    2.0200    0.3258 O.3     1  UNL1       -0.4941
      4 N           0.5529   -1.8606   -0.4523 N.ar    1  UNL1       -0.2593
      5 N          -2.3661    0.0561    0.4148 N.4     1  UNL1        0.2308
      6 C           3.8512    1.2252    0.4942 C.3     1  UNL1        0.0704
      7 C           1.4231    0.3747    0.1125 C.3     1  UNL1        0.0224
      8 C           2.4643    0.9676    1.1076 C.3     1  UNL1       -0.0124
      9 C           4.7367    2.0144    1.4725 C.3     1  UNL1       -0.0237
     10 C           4.7153   -0.0215    0.2655 C.3     1  UNL1       -0.0237
     11 C           1.4573    1.2951   -1.1383 C.3     1  UNL1       -0.0181
     12 C           6.1616    1.8150    0.9589 C.3     1  UNL1       -0.0504
     13 C           6.1397    0.5192    0.1522 C.3     1  UNL1       -0.0504
     14 C           0.0115    0.4968    0.7385 C.3     1  UNL1       -0.0013
     15 C           2.8671    1.4887   -1.6863 C.3     1  UNL1        0.0492
     16 C           1.6501   -1.1244   -0.1669 C.ar    1  UNL1        0.0478
     17 C          -1.0463   -0.0856   -0.1884 C.3     1  UNL1       -0.0325
     18 C           2.9364   -1.6370   -0.1153 C.ar    1  UNL1       -0.0398
     19 C           3.1075   -2.9925   -0.3735 C.ar    1  UNL1       -0.0586
     20 C           0.7583   -3.1743   -0.6974 C.ar    1  UNL1        0.0279
     21 C          -3.3944   -0.5095   -0.4471 C.3     1  UNL1        0.0021
     22 C           2.0028   -3.7827   -0.6710 C.ar    1  UNL1       -0.0436
     23 C          -4.7693   -0.3595    0.1478 C.ar    1  UNL1        0.0756
     24 C          -5.4408    0.7935    0.4905 C.ar    1  UNL1        0.1353
     25 C          -6.7313    0.5209    1.0294 C.ar    1  UNL1       -0.0124
     26 C          -6.9971   -0.8297    1.0777 C.ar    1  UNL1       -0.0203
     27 C          -5.8198    3.1021    0.0642 C.3     1  UNL1        0.0788
     28 H          -2.5614    1.0463    0.5623 H       1  UNL1        0.2017
     29 H          -2.3739   -0.4445    1.3035 H       1  UNL1        0.2017
     30 H           2.0834    1.8968    1.4769 H       1  UNL1        0.0302
     31 H           2.6010    0.2383    1.8785 H       1  UNL1        0.0302
     32 H           4.6369    1.6291    2.4657 H       1  UNL1        0.0293
     33 H           4.4653    3.0484    1.5180 H       1  UNL1        0.0293
     34 H           4.4274   -0.5217   -0.6355 H       1  UNL1        0.0293
     35 H           4.6127   -0.7389    1.0527 H       1  UNL1        0.0293
     36 H           1.0594    2.2516   -0.8707 H       1  UNL1        0.0296
     37 H           0.8746    0.8247   -1.9025 H       1  UNL1        0.0296
     38 H           6.8441    1.7313    1.7787 H       1  UNL1        0.0266
     39 H           6.4830    2.6431    0.3623 H       1  UNL1        0.0266
     40 H           6.3834    0.7140   -0.8713 H       1  UNL1        0.0266
     41 H           6.8570   -0.1844    0.5201 H       1  UNL1        0.0266
     42 H          -0.2061    1.5298    0.9131 H       1  UNL1        0.0326
     43 H          -0.0026   -0.0489    1.6588 H       1  UNL1        0.0326
     44 H           3.2463    0.5437   -2.0149 H       1  UNL1        0.0560
     45 H           2.8212    2.1815   -2.5004 H       1  UNL1        0.0560
     46 H          -1.0252    0.4356   -1.1226 H       1  UNL1        0.0814
     47 H          -0.8415   -1.1235   -0.3488 H       1  UNL1        0.0814
     48 H           3.7420   -1.0318    0.1077 H       1  UNL1        0.0636
     49 H           4.0506   -3.4104   -0.3443 H       1  UNL1        0.0619
     50 H          -0.0624   -3.7598   -0.9176 H       1  UNL1        0.0829
     51 H          -3.1912   -1.5502   -0.5911 H       1  UNL1        0.0873
     52 H          -3.3756    0.0191   -1.3772 H       1  UNL1        0.0873
     53 H           2.1066   -4.7908   -0.8661 H       1  UNL1        0.0633
     54 H          -7.3896    1.2498    1.3463 H       1  UNL1        0.0659
     55 H          -7.8779   -1.2318    1.4349 H       1  UNL1        0.0694
     56 H          -5.2664    4.0115   -0.0441 H       1  UNL1        0.0660
     57 H          -6.5068    3.1975    0.8790 H       1  UNL1        0.0660
     58 H          -6.3611    2.9044   -0.8375 H       1  UNL1        0.0660
@<TRIPOS>UNITY_ATOM_ATTR
5 1
charge 1
@<TRIPOS>BOND
     1     1    23   ar
     2     1    26   ar
     3     2     6    1
     4     2    15    1
     5     3    24    1
     6     3    27    1
     7     4    16   ar
     8     4    20   ar
     9     5    17    1
    10     5    21    1
    11     5    28    1
    12     5    29    1
    13     6     8    1
    14     6     9    1
    15     6    10    1
    16     7     8    1
    17     7    11    1
    18     7    14    1
    19     7    16    1
    20     8    30    1
    21     8    31    1
    22     9    12    1
    23     9    32    1
    24     9    33    1
    25    10    13    1
    26    10    34    1
    27    10    35    1
    28    11    15    1
    29    11    36    1
    30    11    37    1
    31    12    13    1
    32    12    38    1
    33    12    39    1
    34    13    40    1
    35    13    41    1
    36    14    17    1
    37    14    42    1
    38    14    43    1
    39    15    44    1
    40    15    45    1
    41    16    18   ar
    42    17    46    1
    43    17    47    1
    44    18    19   ar
    45    18    48    1
    46    19    22   ar
    47    19    49    1
    48    20    22   ar
    49    20    50    1
    50    21    23    1
    51    21    51    1
    52    21    52    1
    53    22    53    1
    54    23    24   ar
    55    24    25   ar
    56    25    26   ar
    57    25    54    1
    58    26    55    1
    59    27    56    1
    60    27    57    1
    61    27    58    1
@<TRIPOS>MOLECULE
66555030
 58 61 0 0 0
SMALL
GASTEIGER

@<TRIPOS>ATOM
      1 S          -4.1552   -1.3054    3.7882 S.2     1  UNL1       -0.0926
      2 O           3.7389    2.0185   -0.6934 O.3     1  UNL1       -0.3733
      3 O          -4.8361    0.6778    0.5411 O.3     1  UNL1       -0.4941
      4 N           2.9239   -1.5697   -0.0867 N.ar    1  UNL1       -0.2593
      5 N          -1.4031   -0.1338    2.6236 N.4     1  UNL1        0.2308
      6 C           3.8512    1.2252    0.4942 C.3     1  UNL1        0.0704
      7 C           1.4231    0.3747    0.1125 C.3     1  UNL1        0.0224
      8 C           2.4643    0.9676    1.1076 C.3     1  UNL1       -0.0124
      9 C           4.7367    2.0144    1.4725 C.3     1  UNL1       -0.0237
     10 C           4.7153   -0.0215    0.2655 C.3     1  UNL1       -0.0237
     11 C           1.4573    1.2951   -1.1383 C.3     1  UNL1       -0.0181
     12 C           6.1616    1.8150    0.9589 C.3     1  UNL1       -0.0504
     13 C           6.1397    0.5192    0.1522 C.3     1  UNL1       -0.0504
     14 C           0.0115    0.4968    0.7385 C.3     1  UNL1       -0.0013
     15 C           2.8671    1.4887   -1.6863 C.3     1  UNL1        0.0492
     16 C           1.6501   -1.1244   -0.1669 C.ar    1  UNL1        0.0478
     17 C          -0.0619   -0.2494    2.0632 C.3     1  UNL1       -0.0325
     18 C           0.5654   -1.9283   -0.4789 C.ar    1  UNL1       -0.0398
     19 C           0.8036   -3.2760   -0.7241 C.ar    1  UNL1       -0.0586
     20 C           3.1166   -2.8853   -0.3317 C.ar    1  UNL1        0.0279
     21 C          -2.3926   -0.7130    1.7261 C.3     1  UNL1        0.0021
     22 C           2.1007   -3.7716   -0.6510 C.ar    1  UNL1       -0.0436
     23 C          -3.7886   -0.5899    2.2763 C.ar    1  UNL1        0.0756
     24 C          -4.8812    0.0432    1.7255 C.ar    1  UNL1        0.1353
     25 C          -6.0342   -0.0603    2.5561 C.ar    1  UNL1       -0.0124
     26 C          -5.7793   -0.7686    3.7096 C.ar    1  UNL1       -0.0203
     27 C          -3.9078    0.1926   -0.4390 C.3     1  UNL1        0.0788
     28 H          -1.6204    0.8521    2.7690 H       1  UNL1        0.2017
     29 H          -1.4310   -0.6390    3.5093 H       1  UNL1        0.2017
     30 H           2.0834    1.8968    1.4769 H       1  UNL1        0.0302
     31 H           2.6010    0.2383    1.8785 H       1  UNL1        0.0302
     32 H           4.6369    1.6291    2.4657 H       1  UNL1        0.0293
     33 H           4.4653    3.0484    1.5180 H       1  UNL1        0.0293
     34 H           4.4274   -0.5217   -0.6355 H       1  UNL1        0.0293
     35 H           4.6127   -0.7389    1.0527 H       1  UNL1        0.0293
     36 H           1.0594    2.2516   -0.8707 H       1  UNL1        0.0296
     37 H           0.8746    0.8247   -1.9025 H       1  UNL1        0.0296
     38 H           6.8441    1.7313    1.7787 H       1  UNL1        0.0266
     39 H           6.4830    2.6431    0.3623 H       1  UNL1        0.0266
     40 H           6.3834    0.7140   -0.8713 H       1  UNL1        0.0266
     41 H           6.8570   -0.1844    0.5201 H       1  UNL1        0.0266
     42 H          -0.7081    0.0833    0.0632 H       1  UNL1        0.0326
     43 H          -0.1948    1.5314    0.9172 H       1  UNL1        0.0326
     44 H           3.2463    0.5437   -2.0149 H       1  UNL1        0.0560
     45 H           2.8212    2.1815   -2.5004 H       1  UNL1        0.0560
     46 H           0.1675   -1.2821    1.9020 H       1  UNL1        0.0814
     47 H           0.6435    0.1751    2.7466 H       1  UNL1        0.0814
     48 H          -0.3890   -1.5389   -0.5277 H       1  UNL1        0.0636
     49 H           0.0208   -3.9060   -0.9595 H       1  UNL1        0.0619
     50 H           4.0798   -3.2519   -0.2776 H       1  UNL1        0.0829
     51 H          -2.1666   -1.7492    1.5841 H       1  UNL1        0.0873
     52 H          -2.3528   -0.1795    0.7994 H       1  UNL1        0.0873
     53 H           2.3003   -4.7684   -0.8289 H       1  UNL1        0.0633
     54 H          -6.9527    0.3476    2.3210 H       1  UNL1        0.0659
     55 H          -6.4840   -0.9539    4.4403 H       1  UNL1        0.0694
     56 H          -3.9806    0.7883   -1.3249 H       1  UNL1        0.0660
     57 H          -4.1370   -0.8258   -0.6740 H       1  UNL1        0.0660
     58 H          -2.9132    0.2535   -0.0491 H       1  UNL1        0.0660
@<TRIPOS>UNITY_ATOM_ATTR
5 1
charge 1
@<TRIPOS>BOND
     1     1    23   ar
     2     1    26   ar
     3     2     6    1
     4     2    15    1
     5     3    24    1
     6     3    27    1
     7     4    16   ar
     8     4    20   ar
     9     5    17    1
    10     5    21    1
    11     5    28    1
    12     5    29    1
    13     6     8    1
    14     6     9    1
    15     6    10    1
    16     7     8    1
    17     7    11    1
    18     7    14    1
    19     7    16    1
    20     8    30    1
    21     8    31    1
    22     9    12    1
    23     9    32    1
    24     9    33    1
    25    10    13    1
    26    10    34    1
    27    10    35    1
    28    11    15    1
    29    11    36    1
    30    11    37    1
    31    12    13    1
    32    12    38    1
    33    12    39    1
    34    13    40    1
    35    13    41    1
    36    14    17    1
    37    14    42    1
    38    14    43    1
    39    15    44    1
    40    15    45    1
    41    16    18   ar
    42    17    46    1
    43    17    47    1
    44    18    19   ar
    45    18    48    1
    46    19    22   ar
    47    19    49    1
    48    20    22   ar
    49    20    50    1
    50    21    23    1
    51    21    51    1
    52    21    52    1
    53    22    53    1
    54    23    24   ar
    55    24    25   ar
    56    25    26   ar
    57    25    54    1
    58    26    55    1
    59    27    56    1
    60    27    57    1
    61    27    58    1
@<TRIPOS>MOLECULE
66555030
 58 61 0 0 0
SMALL
GASTEIGER

@<TRIPOS>ATOM
      1 S           0.5072    0.9145    4.4998 S.2     1  UNL1       -0.0926
      2 O           3.7389    2.0185   -0.6934 O.3     1  UNL1       -0.3733
      3 O          -1.5461    4.1552    4.0282 O.3     1  UNL1       -0.4941
      4 N           1.5734   -1.9572    0.8951 N.ar    1  UNL1       -0.2593
      5 N          -1.6674    2.0414    1.6033 N.4     1  UNL1        0.2308
      6 C           3.8512    1.2252    0.4942 C.3     1  UNL1        0.0704
      7 C           1.4231    0.3747    0.1125 C.3     1  UNL1        0.0224
      8 C           2.4643    0.9676    1.1076 C.3     1  UNL1       -0.0124
      9 C           4.7367    2.0144    1.4725 C.3     1  UNL1       -0.0237
     10 C           4.7153   -0.0215    0.2655 C.3     1  UNL1       -0.0237
     11 C           1.4573    1.2951   -1.1383 C.3     1  UNL1       -0.0181
     12 C           6.1616    1.8150    0.9589 C.3     1  UNL1       -0.0504
     13 C           6.1397    0.5192    0.1522 C.3     1  UNL1       -0.0504
     14 C           0.0115    0.4968    0.7385 C.3     1  UNL1       -0.0013
     15 C           2.8671    1.4887   -1.6863 C.3     1  UNL1        0.0492
     16 C           1.6501   -1.1244   -0.1669 C.ar    1  UNL1        0.0478
     17 C          -0.3430    1.9539    0.9995 C.3     1  UNL1       -0.0325
     18 C           1.9150   -1.5407   -1.4617 C.ar    1  UNL1       -0.0398
     19 C           2.1137   -2.8994   -1.6805 C.ar    1  UNL1       -0.0586
     20 C           1.7723   -3.2707    0.6437 C.ar    1  UNL1        0.0279
     21 C          -1.7056    1.3346    2.8758 C.3     1  UNL1        0.0021
     22 C           2.0424   -3.7875   -0.6130 C.ar    1  UNL1       -0.0436
     23 C          -0.7319    1.9131    3.8678 C.ar    1  UNL1        0.0756
     24 C          -0.6758    3.1918    4.3775 C.ar    1  UNL1        0.1353
     25 C           0.3991    3.3537    5.2987 C.ar    1  UNL1       -0.0124
     26 C           1.1231    2.1928    5.4583 C.ar    1  UNL1       -0.0203
     27 C          -2.8706    3.7515    3.6534 C.3     1  UNL1        0.0788
     28 H          -2.3511    1.6266    0.9702 H       1  UNL1        0.2017
     29 H          -1.8858    3.0238    1.7693 H       1  UNL1        0.2017
     30 H           2.0834    1.8968    1.4769 H       1  UNL1        0.0302
     31 H           2.6010    0.2383    1.8785 H       1  UNL1        0.0302
     32 H           4.6369    1.6291    2.4657 H       1  UNL1        0.0293
     33 H           4.4653    3.0484    1.5180 H       1  UNL1        0.0293
     34 H           4.4274   -0.5217   -0.6355 H       1  UNL1        0.0293
     35 H           4.6127   -0.7389    1.0527 H       1  UNL1        0.0293
     36 H           1.0594    2.2516   -0.8707 H       1  UNL1        0.0296
     37 H           0.8746    0.8247   -1.9025 H       1  UNL1        0.0296
     38 H           6.8441    1.7313    1.7787 H       1  UNL1        0.0266
     39 H           6.4830    2.6431    0.3623 H       1  UNL1        0.0266
     40 H           6.3834    0.7140   -0.8713 H       1  UNL1        0.0266
     41 H           6.8570   -0.1844    0.5201 H       1  UNL1        0.0266
     42 H          -0.0089   -0.0399    1.6640 H       1  UNL1        0.0326
     43 H          -0.7025    0.0887    0.0539 H       1  UNL1        0.0326
     44 H           3.2463    0.5437   -2.0149 H       1  UNL1        0.0560
     45 H           2.8212    2.1815   -2.5004 H       1  UNL1        0.0560
     46 H           0.3788    2.3813    1.6638 H       1  UNL1        0.0814
     47 H          -0.3422    2.4885    0.0726 H       1  UNL1        0.0814
     48 H           1.9632   -0.8638   -2.2391 H       1  UNL1        0.0636
     49 H           2.3131   -3.2473   -2.6314 H       1  UNL1        0.0619
     50 H           1.7197   -3.9288    1.4369 H       1  UNL1        0.0829
     51 H          -1.4595    0.3069    2.7083 H       1  UNL1        0.0873
     52 H          -2.6908    1.4338    3.2811 H       1  UNL1        0.0873
     53 H           2.1863   -4.7999   -0.7525 H       1  UNL1        0.0633
     54 H           0.6103    4.2369    5.7889 H       1  UNL1        0.0659
     55 H           1.9405    2.1040    6.0819 H       1  UNL1        0.0694
     56 H          -3.4493    4.6159    3.4023 H       1  UNL1        0.0660
     57 H          -3.3320    3.2386    4.4713 H       1  UNL1        0.0660
     58 H          -2.8185    3.0990    2.8069 H       1  UNL1        0.0660
@<TRIPOS>UNITY_ATOM_ATTR
5 1
charge 1
@<TRIPOS>BOND
     1     1    23   ar
     2     1    26   ar
     3     2     6    1
     4     2    15    1
     5     3    24    1
     6     3    27    1
     7     4    16   ar
     8     4    20   ar
     9     5    17    1
    10     5    21    1
    11     5    28    1
    12     5    29    1
    13     6     8    1
    14     6     9    1
    15     6    10    1
    16     7     8    1
    17     7    11    1
    18     7    14    1
    19     7    16    1
    20     8    30    1
    21     8    31    1
    22     9    12    1
    23     9    32    1
    24     9    33    1
    25    10    13    1
    26    10    34    1
    27    10    35    1
    28    11    15    1
    29    11    36    1
    30    11    37    1
    31    12    13    1
    32    12    38    1
    33    12    39    1
    34    13    40    1
    35    13    41    1
    36    14    17    1
    37    14    42    1
    38    14    43    1
    39    15    44    1
    40    15    45    1
    41    16    18   ar
    42    17    46    1
    43    17    47    1
    44    18    19   ar
    45    18    48    1
    46    19    22   ar
    47    19    49    1
    48    20    22   ar
    49    20    50    1
    50    21    23    1
    51    21    51    1
    52    21    52    1
    53    22    53    1
    54    23    24   ar
    55    24    25   ar
    56    25    26   ar
    57    25    54    1
    58    26    55    1
    59    27    56    1
    60    27    57    1
    61    27    58    1
@<TRIPOS>MOLECULE
66555030
 58 61 0 0 0
SMALL
GASTEIGER

@<TRIPOS>ATOM
      1 S          -3.0709    3.8165   -0.6731 S.2     1  UNL1       -0.0926
      2 O           3.7389    2.0185   -0.6934 O.3     1  UNL1       -0.3733
      3 O          -2.2451    0.3050   -2.0616 O.3     1  UNL1       -0.4941
      4 N           2.9239   -1.5697   -0.0867 N.ar    1  UNL1       -0.2593
      5 N          -1.6674    2.0414    1.6033 N.4     1  UNL1        0.2308
      6 C           3.8512    1.2252    0.4942 C.3     1  UNL1        0.0704
      7 C           1.4231    0.3747    0.1125 C.3     1  UNL1        0.0224
      8 C           2.4643    0.9676    1.1076 C.3     1  UNL1       -0.0124
      9 C           4.7367    2.0144    1.4725 C.3     1  UNL1       -0.0237
     10 C           4.7153   -0.0215    0.2655 C.3     1  UNL1       -0.0237
     11 C           1.4573    1.2951   -1.1383 C.3     1  UNL1       -0.0181
     12 C           6.1616    1.8150    0.9589 C.3     1  UNL1       -0.0504
     13 C           6.1397    0.5192    0.1522 C.3     1  UNL1       -0.0504
     14 C           0.0115    0.4968    0.7385 C.3     1  UNL1       -0.0013
     15 C           2.8671    1.4887   -1.6863 C.3     1  UNL1        0.0492
     16 C           1.6501   -1.1244   -0.1669 C.ar    1  UNL1        0.0478
     17 C          -0.3430    1.9539    0.9995 C.3     1  UNL1       -0.0325
     18 C           0.5654   -1.9283   -0.4789 C.ar    1  UNL1       -0.0398
     19 C           0.8036   -3.2760   -0.7241 C.ar    1  UNL1       -0.0586
     20 C           3.1166   -2.8853   -0.3317 C.ar    1  UNL1        0.0279
     21 C          -2.6752    1.4543    0.7318 C.3     1  UNL1        0.0021
     22 C           2.1007   -3.7716   -0.6510 C.ar    1  UNL1       -0.0436
     23 C          -2.7267    2.1404   -0.6074 C.ar    1  UNL1        0.0756
     24 C          -2.5295    1.6036   -1.8608 C.ar    1  UNL1        0.1353
     25 C          -2.6624    2.5816   -2.8884 C.ar    1  UNL1       -0.0124
     26 C          -2.9563    3.8282   -2.3816 C.ar    1  UNL1       -0.0203
     27 C          -2.7543   -0.6423   -1.1125 C.3     1  UNL1        0.0788
     28 H          -1.8964    3.0220    1.7656 H       1  UNL1        0.2017
     29 H          -1.6586    1.5273    2.4842 H       1  UNL1        0.2017
     30 H           2.0834    1.8968    1.4769 H       1  UNL1        0.0302
     31 H           2.6010    0.2383    1.8785 H       1  UNL1        0.0302
     32 H           4.6369    1.6291    2.4657 H       1  UNL1        0.0293
     33 H           4.4653    3.0484    1.5180 H       1  UNL1        0.0293
     34 H           4.4274   -0.5217   -0.6355 H       1  UNL1        0.0293
     35 H           4.6127   -0.7389    1.0527 H       1  UNL1        0.0293
     36 H           1.0594    2.2516   -0.8707 H       1  UNL1        0.0296
     37 H           0.8746    0.8247   -1.9025 H       1  UNL1        0.0296
     38 H           6.8441    1.7313    1.7787 H       1  UNL1        0.0266
     39 H           6.4830    2.6431    0.3623 H       1  UNL1        0.0266
     40 H           6.3834    0.7140   -0.8713 H       1  UNL1        0.0266
     41 H           6.8570   -0.1844    0.5201 H       1  UNL1        0.0266
     42 H          -0.0089   -0.0399    1.6640 H       1  UNL1        0.0326
     43 H          -0.7025    0.0887    0.0539 H       1  UNL1        0.0326
     44 H           3.2463    0.5437   -2.0149 H       1  UNL1        0.0560
     45 H           2.8212    2.1815   -2.5004 H       1  UNL1        0.0560
     46 H           0.3788    2.3813    1.6638 H       1  UNL1        0.0814
     47 H          -0.3422    2.4885    0.0726 H       1  UNL1        0.0814
     48 H          -0.3890   -1.5389   -0.5277 H       1  UNL1        0.0636
     49 H           0.0208   -3.9060   -0.9595 H       1  UNL1        0.0619
     50 H           4.0798   -3.2519   -0.2776 H       1  UNL1        0.0829
     51 H          -3.6324    1.5410    1.2021 H       1  UNL1        0.0873
     52 H          -2.4171    0.4287    0.5696 H       1  UNL1        0.0873
     53 H           2.3003   -4.7684   -0.8289 H       1  UNL1        0.0633
     54 H          -2.5515    2.3797   -3.8944 H       1  UNL1        0.0659
     55 H          -3.0915    4.6700   -2.9630 H       1  UNL1        0.0694
     56 H          -2.4525   -1.6290   -1.3962 H       1  UNL1        0.0660
     57 H          -3.8227   -0.5881   -1.0925 H       1  UNL1        0.0660
     58 H          -2.3674   -0.4166   -0.1407 H       1  UNL1        0.0660
@<TRIPOS>UNITY_ATOM_ATTR
5 1
charge 1
@<TRIPOS>BOND
     1     1    23   ar
     2     1    26   ar
     3     2     6    1
     4     2    15    1
     5     3    24    1
     6     3    27    1
     7     4    16   ar
     8     4    20   ar
     9     5    17    1
    10     5    21    1
    11     5    28    1
    12     5    29    1
    13     6     8    1
    14     6     9    1
    15     6    10    1
    16     7     8    1
    17     7    11    1
    18     7    14    1
    19     7    16    1
    20     8    30    1
    21     8    31    1
    22     9    12    1
    23     9    32    1
    24     9    33    1
    25    10    13    1
    26    10    34    1
    27    10    35    1
    28    11    15    1
    29    11    36    1
    30    11    37    1
    31    12    13    1
    32    12    38    1
    33    12    39    1
    34    13    40    1
    35    13    41    1
    36    14    17    1
    37    14    42    1
    38    14    43    1
    39    15    44    1
    40    15    45    1
    41    16    18   ar
    42    17    46    1
    43    17    47    1
    44    18    19   ar
    45    18    48    1
    46    19    22   ar
    47    19    49    1
    48    20    22   ar
    49    20    50    1
    50    21    23    1
    51    21    51    1
    52    21    52    1
    53    22    53    1
    54    23    24   ar
    55    24    25   ar
    56    25    26   ar
    57    25    54    1
    58    26    55    1
    59    27    56    1
    60    27    57    1
    61    27    58    1
@<TRIPOS>MOLECULE
66555030
 58 61 0 0 0
SMALL
GASTEIGER

@<TRIPOS>ATOM
      1 S          -3.4339    2.6837    4.5797 S.2     1  UNL1       -0.0926
      2 O           3.7389    2.0185   -0.6934 O.3     1  UNL1       -0.3733
      3 O          -4.0828   -0.5531    2.5692 O.3     1  UNL1       -0.4941
      4 N           0.7973   -1.7152   -1.0334 N.ar    1  UNL1       -0.2593
      5 N          -1.6674    2.0414    1.6033 N.4     1  UNL1        0.2308
      6 C           3.8512    1.2252    0.4942 C.3     1  UNL1        0.0704
      7 C           1.4231    0.3747    0.1125 C.3     1  UNL1        0.0224
      8 C           2.4643    0.9676    1.1076 C.3     1  UNL1       -0.0124
      9 C           4.7367    2.0144    1.4725 C.3     1  UNL1       -0.0237
     10 C           4.7153   -0.0215    0.2655 C.3     1  UNL1       -0.0237
     11 C           1.4573    1.2951   -1.1383 C.3     1  UNL1       -0.0181
     12 C           6.1616    1.8150    0.9589 C.3     1  UNL1       -0.0504
     13 C           6.1397    0.5192    0.1522 C.3     1  UNL1       -0.0504
     14 C           0.0115    0.4968    0.7385 C.3     1  UNL1       -0.0013
     15 C           2.8671    1.4887   -1.6863 C.3     1  UNL1        0.0492
     16 C           1.6501   -1.1244   -0.1669 C.ar    1  UNL1        0.0478
     17 C          -0.3430    1.9539    0.9995 C.3     1  UNL1       -0.0325
     18 C           2.6925   -1.7823    0.4660 C.ar    1  UNL1       -0.0398
     19 C           2.8712   -3.1336    0.1916 C.ar    1  UNL1       -0.0586
     20 C           1.0020   -3.0297   -1.2753 C.ar    1  UNL1        0.0279
     21 C          -1.7056    1.3346    2.8758 C.3     1  UNL1        0.0021
     22 C           2.0142   -3.7766   -0.6946 C.ar    1  UNL1       -0.0436
     23 C          -3.0693    1.3967    3.5107 C.ar    1  UNL1        0.0756
     24 C          -4.1321    0.5331    3.3600 C.ar    1  UNL1        0.1353
     25 C          -5.2606    0.9338    4.1321 C.ar    1  UNL1       -0.0124
     26 C          -5.0173    2.0879    4.8436 C.ar    1  UNL1       -0.0203
     27 C          -4.8759   -1.6874    2.9463 C.3     1  UNL1        0.0788
     28 H          -2.3511    1.6266    0.9702 H       1  UNL1        0.2017
     29 H          -1.8858    3.0238    1.7693 H       1  UNL1        0.2017
     30 H           2.0834    1.8968    1.4769 H       1  UNL1        0.0302
     31 H           2.6010    0.2383    1.8785 H       1  UNL1        0.0302
     32 H           4.6369    1.6291    2.4657 H       1  UNL1        0.0293
     33 H           4.4653    3.0484    1.5180 H       1  UNL1        0.0293
     34 H           4.4274   -0.5217   -0.6355 H       1  UNL1        0.0293
     35 H           4.6127   -0.7389    1.0527 H       1  UNL1        0.0293
     36 H           1.0594    2.2516   -0.8707 H       1  UNL1        0.0296
     37 H           0.8746    0.8247   -1.9025 H       1  UNL1        0.0296
     38 H           6.8441    1.7313    1.7787 H       1  UNL1        0.0266
     39 H           6.4830    2.6431    0.3623 H       1  UNL1        0.0266
     40 H           6.3834    0.7140   -0.8713 H       1  UNL1        0.0266
     41 H           6.8570   -0.1844    0.5201 H       1  UNL1        0.0266
     42 H          -0.0089   -0.0399    1.6640 H       1  UNL1        0.0326
     43 H          -0.7025    0.0887    0.0539 H       1  UNL1        0.0326
     44 H           3.2463    0.5437   -2.0149 H       1  UNL1        0.0560
     45 H           2.8212    2.1815   -2.5004 H       1  UNL1        0.0560
     46 H           0.3788    2.3813    1.6638 H       1  UNL1        0.0814
     47 H          -0.3422    2.4885    0.0726 H       1  UNL1        0.0814
     48 H           3.3166   -1.2850    1.1204 H       1  UNL1        0.0636
     49 H           3.6368   -3.6573    0.6439 H       1  UNL1        0.0619
     50 H           0.3649   -3.5059   -1.9329 H       1  UNL1        0.0829
     51 H          -0.9940    1.7790    3.5400 H       1  UNL1        0.0873
     52 H          -1.4715    0.3069    2.6918 H       1  UNL1        0.0873
     53 H           2.1285   -4.7787   -0.9131 H       1  UNL1        0.0633
     54 H          -6.1551    0.4198    4.1555 H       1  UNL1        0.0659
     55 H          -5.7080    2.5402    5.4627 H       1  UNL1        0.0694
     56 H          -4.7392   -2.4717    2.2313 H       1  UNL1        0.0660
     57 H          -5.9081   -1.4071    2.9753 H       1  UNL1        0.0660
     58 H          -4.5718   -2.0295    3.9135 H       1  UNL1        0.0660
@<TRIPOS>UNITY_ATOM_ATTR
5 1
charge 1
@<TRIPOS>BOND
     1     1    23   ar
     2     1    26   ar
     3     2     6    1
     4     2    15    1
     5     3    24    1
     6     3    27    1
     7     4    16   ar
     8     4    20   ar
     9     5    17    1
    10     5    21    1
    11     5    28    1
    12     5    29    1
    13     6     8    1
    14     6     9    1
    15     6    10    1
    16     7     8    1
    17     7    11    1
    18     7    14    1
    19     7    16    1
    20     8    30    1
    21     8    31    1
    22     9    12    1
    23     9    32    1
    24     9    33    1
    25    10    13    1
    26    10    34    1
    27    10    35    1
    28    11    15    1
    29    11    36    1
    30    11    37    1
    31    12    13    1
    32    12    38    1
    33    12    39    1
    34    13    40    1
    35    13    41    1
    36    14    17    1
    37    14    42    1
    38    14    43    1
    39    15    44    1
    40    15    45    1
    41    16    18   ar
    42    17    46    1
    43    17    47    1
    44    18    19   ar
    45    18    48    1
    46    19    22   ar
    47    19    49    1
    48    20    22   ar
    49    20    50    1
    50    21    23    1
    51    21    51    1
    52    21    52    1
    53    22    53    1
    54    23    24   ar
    55    24    25   ar
    56    25    26   ar
    57    25    54    1
    58    26    55    1
    59    27    56    1
    60    27    57    1
    61    27    58    1
@<TRIPOS>MOLECULE
66555030
 58 61 0 0 0
SMALL
GASTEIGER

@<TRIPOS>ATOM
      1 S          -2.4214    1.2283   -2.0241 S.2     1  UNL1       -0.0926
      2 O           3.7389    2.0185   -0.6934 O.3     1  UNL1       -0.3733
      3 O          -3.2665    4.3714    0.0610 O.3     1  UNL1       -0.4941
      4 N           0.7973   -1.7152   -1.0334 N.ar    1  UNL1       -0.2593
      5 N          -1.6674    2.0414    1.6033 N.4     1  UNL1        0.2308
      6 C           3.8512    1.2252    0.4942 C.3     1  UNL1        0.0704
      7 C           1.4231    0.3747    0.1125 C.3     1  UNL1        0.0224
      8 C           2.4643    0.9676    1.1076 C.3     1  UNL1       -0.0124
      9 C           4.7367    2.0144    1.4725 C.3     1  UNL1       -0.0237
     10 C           4.7153   -0.0215    0.2655 C.3     1  UNL1       -0.0237
     11 C           1.4573    1.2951   -1.1383 C.3     1  UNL1       -0.0181
     12 C           6.1616    1.8150    0.9589 C.3     1  UNL1       -0.0504
     13 C           6.1397    0.5192    0.1522 C.3     1  UNL1       -0.0504
     14 C           0.0115    0.4968    0.7385 C.3     1  UNL1       -0.0013
     15 C           2.8671    1.4887   -1.6863 C.3     1  UNL1        0.0492
     16 C           1.6501   -1.1244   -0.1669 C.ar    1  UNL1        0.0478
     17 C          -0.3430    1.9539    0.9995 C.3     1  UNL1       -0.0325
     18 C           2.6925   -1.7823    0.4660 C.ar    1  UNL1       -0.0398
     19 C           2.8712   -3.1336    0.1916 C.ar    1  UNL1       -0.0586
     20 C           1.0020   -3.0297   -1.2753 C.ar    1  UNL1        0.0279
     21 C          -2.6752    1.4543    0.7318 C.3     1  UNL1        0.0021
     22 C           2.0142   -3.7766   -0.6946 C.ar    1  UNL1       -0.0436
     23 C          -2.7267    2.1404   -0.6074 C.ar    1  UNL1        0.0756
     24 C          -2.9957    3.4614   -0.8910 C.ar    1  UNL1        0.1353
     25 C          -2.9511    3.7279   -2.2900 C.ar    1  UNL1       -0.0124
     26 C          -2.6494    2.6009   -3.0222 C.ar    1  UNL1       -0.0203
     27 C          -3.9012    3.9097    1.2616 C.3     1  UNL1        0.0788
     28 H          -1.8964    3.0220    1.7656 H       1  UNL1        0.2017
     29 H          -1.6586    1.5273    2.4842 H       1  UNL1        0.2017
     30 H           2.0834    1.8968    1.4769 H       1  UNL1        0.0302
     31 H           2.6010    0.2383    1.8785 H       1  UNL1        0.0302
     32 H           4.6369    1.6291    2.4657 H       1  UNL1        0.0293
     33 H           4.4653    3.0484    1.5180 H       1  UNL1        0.0293
     34 H           4.4274   -0.5217   -0.6355 H       1  UNL1        0.0293
     35 H           4.6127   -0.7389    1.0527 H       1  UNL1        0.0293
     36 H           1.0594    2.2516   -0.8707 H       1  UNL1        0.0296
     37 H           0.8746    0.8247   -1.9025 H       1  UNL1        0.0296
     38 H           6.8441    1.7313    1.7787 H       1  UNL1        0.0266
     39 H           6.4830    2.6431    0.3623 H       1  UNL1        0.0266
     40 H           6.3834    0.7140   -0.8713 H       1  UNL1        0.0266
     41 H           6.8570   -0.1844    0.5201 H       1  UNL1        0.0266
     42 H          -0.0089   -0.0399    1.6640 H       1  UNL1        0.0326
     43 H          -0.7025    0.0887    0.0539 H       1  UNL1        0.0326
     44 H           3.2463    0.5437   -2.0149 H       1  UNL1        0.0560
     45 H           2.8212    2.1815   -2.5004 H       1  UNL1        0.0560
     46 H           0.3788    2.3813    1.6638 H       1  UNL1        0.0814
     47 H          -0.3422    2.4885    0.0726 H       1  UNL1        0.0814
     48 H           3.3166   -1.2850    1.1204 H       1  UNL1        0.0636
     49 H           3.6368   -3.6573    0.6439 H       1  UNL1        0.0619
     50 H           0.3649   -3.5059   -1.9329 H       1  UNL1        0.0829
     51 H          -3.6324    1.5410    1.2021 H       1  UNL1        0.0873
     52 H          -2.4171    0.4287    0.5696 H       1  UNL1        0.0873
     53 H           2.1285   -4.7787   -0.9131 H       1  UNL1        0.0633
     54 H          -3.1245    4.6564   -2.7060 H       1  UNL1        0.0659
     55 H          -2.5701    2.5855   -4.0510 H       1  UNL1        0.0694
     56 H          -4.0546    4.7357    1.9243 H       1  UNL1        0.0660
     57 H          -3.2778    3.1817    1.7374 H       1  UNL1        0.0660
     58 H          -4.8447    3.4672    1.0188 H       1  UNL1        0.0660
@<TRIPOS>UNITY_ATOM_ATTR
5 1
charge 1
@<TRIPOS>BOND
     1     1    23   ar
     2     1    26   ar
     3     2     6    1
     4     2    15    1
     5     3    24    1
     6     3    27    1
     7     4    16   ar
     8     4    20   ar
     9     5    17    1
    10     5    21    1
    11     5    28    1
    12     5    29    1
    13     6     8    1
    14     6     9    1
    15     6    10    1
    16     7     8    1
    17     7    11    1
    18     7    14    1
    19     7    16    1
    20     8    30    1
    21     8    31    1
    22     9    12    1
    23     9    32    1
    24     9    33    1
    25    10    13    1
    26    10    34    1
    27    10    35    1
    28    11    15    1
    29    11    36    1
    30    11    37    1
    31    12    13    1
    32    12    38    1
    33    12    39    1
    34    13    40    1
    35    13    41    1
    36    14    17    1
    37    14    42    1
    38    14    43    1
    39    15    44    1
    40    15    45    1
    41    16    18   ar
    42    17    46    1
    43    17    47    1
    44    18    19   ar
    45    18    48    1
    46    19    22   ar
    47    19    49    1
    48    20    22   ar
    49    20    50    1
    50    21    23    1
    51    21    51    1
    52    21    52    1
    53    22    53    1
    54    23    24   ar
    55    24    25   ar
    56    25    26   ar
    57    25    54    1
    58    26    55    1
    59    27    56    1
    60    27    57    1
    61    27    58    1
@<TRIPOS>MOLECULE
66555030
 58 61 0 0 0
SMALL
GASTEIGER

@<TRIPOS>ATOM
      1 S          -0.7569   -2.9182    2.2296 S.2     1  UNL1       -0.0926
      2 O           3.7389    2.0185   -0.6934 O.3     1  UNL1       -0.3733
      3 O          -1.4333   -3.0073    6.0342 O.3     1  UNL1       -0.4941
      4 N           2.8473   -1.4685   -0.6918 N.ar    1  UNL1       -0.2593
      5 N          -1.4031   -0.1338    2.6236 N.4     1  UNL1        0.2308
      6 C           3.8512    1.2252    0.4942 C.3     1  UNL1        0.0704
      7 C           1.4231    0.3747    0.1125 C.3     1  UNL1        0.0224
      8 C           2.4643    0.9676    1.1076 C.3     1  UNL1       -0.0124
      9 C           4.7367    2.0144    1.4725 C.3     1  UNL1       -0.0237
     10 C           4.7153   -0.0215    0.2655 C.3     1  UNL1       -0.0237
     11 C           1.4573    1.2951   -1.1383 C.3     1  UNL1       -0.0181
     12 C           6.1616    1.8150    0.9589 C.3     1  UNL1       -0.0504
     13 C           6.1397    0.5192    0.1522 C.3     1  UNL1       -0.0504
     14 C           0.0115    0.4968    0.7385 C.3     1  UNL1       -0.0013
     15 C           2.8671    1.4887   -1.6863 C.3     1  UNL1        0.0492
     16 C           1.6501   -1.1244   -0.1669 C.ar    1  UNL1        0.0478
     17 C          -0.0619   -0.2494    2.0632 C.3     1  UNL1       -0.0325
     18 C           0.6425   -2.0294    0.1261 C.ar    1  UNL1       -0.0398
     19 C           0.8792   -3.3741   -0.1364 C.ar    1  UNL1       -0.0586
     20 C           3.0409   -2.7846   -0.9337 C.ar    1  UNL1        0.0279
     21 C          -1.4936   -0.8268    3.9010 C.3     1  UNL1        0.0021
     22 C           2.0987   -3.7672   -0.6762 C.ar    1  UNL1       -0.0436
     23 C          -1.1676   -2.2907    3.7689 C.ar    1  UNL1        0.0756
     24 C          -1.1458   -3.2620    4.7457 C.ar    1  UNL1        0.1353
     25 C          -0.7866   -4.5380    4.2232 C.ar    1  UNL1       -0.0124
     26 C          -0.5480   -4.4935    2.8673 C.ar    1  UNL1       -0.0203
     27 C          -0.7856   -3.8093    7.0317 C.3     1  UNL1        0.0788
     28 H          -2.0733   -0.5436    1.9730 H       1  UNL1        0.2017
     29 H          -1.6099    0.8537    2.7730 H       1  UNL1        0.2017
     30 H           2.0834    1.8968    1.4769 H       1  UNL1        0.0302
     31 H           2.6010    0.2383    1.8785 H       1  UNL1        0.0302
     32 H           4.6369    1.6291    2.4657 H       1  UNL1        0.0293
     33 H           4.4653    3.0484    1.5180 H       1  UNL1        0.0293
     34 H           4.4274   -0.5217   -0.6355 H       1  UNL1        0.0293
     35 H           4.6127   -0.7389    1.0527 H       1  UNL1        0.0293
     36 H           1.0594    2.2516   -0.8707 H       1  UNL1        0.0296
     37 H           0.8746    0.8247   -1.9025 H       1  UNL1        0.0296
     38 H           6.8441    1.7313    1.7787 H       1  UNL1        0.0266
     39 H           6.4830    2.6431    0.3623 H       1  UNL1        0.0266
     40 H           6.3834    0.7140   -0.8713 H       1  UNL1        0.0266
     41 H           6.8570   -0.1844    0.5201 H       1  UNL1        0.0266
     42 H          -0.7081    0.0833    0.0632 H       1  UNL1        0.0326
     43 H          -0.1948    1.5314    0.9172 H       1  UNL1        0.0326
     44 H           3.2463    0.5437   -2.0149 H       1  UNL1        0.0560
     45 H           2.8212    2.1815   -2.5004 H       1  UNL1        0.0560
     46 H           0.1675   -1.2821    1.9020 H       1  UNL1        0.0814
     47 H           0.6435    0.1751    2.7466 H       1  UNL1        0.0814
     48 H          -0.2552   -1.7152    0.5266 H       1  UNL1        0.0636
     49 H           0.1525   -4.0777    0.0686 H       1  UNL1        0.0619
     50 H           3.9463   -3.0751   -1.3349 H       1  UNL1        0.0829
     51 H          -2.4896   -0.7267    4.2791 H       1  UNL1        0.0873
     52 H          -0.7821   -0.3871    4.5683 H       1  UNL1        0.0873
     53 H           2.2959   -4.7597   -0.8788 H       1  UNL1        0.0633
     54 H          -0.7138   -5.3949    4.7936 H       1  UNL1        0.0659
     55 H          -0.2755   -5.3130    2.3024 H       1  UNL1        0.0694
     56 H          -1.1067   -3.4976    8.0036 H       1  UNL1        0.0660
     57 H           0.2748   -3.6908    6.9513 H       1  UNL1        0.0660
     58 H          -1.0418   -4.8377    6.8841 H       1  UNL1        0.0660
@<TRIPOS>UNITY_ATOM_ATTR
5 1
charge 1
@<TRIPOS>BOND
     1     1    23   ar
     2     1    26   ar
     3     2     6    1
     4     2    15    1
     5     3    24    1
     6     3    27    1
     7     4    16   ar
     8     4    20   ar
     9     5    17    1
    10     5    21    1
    11     5    28    1
    12     5    29    1
    13     6     8    1
    14     6     9    1
    15     6    10    1
    16     7     8    1
    17     7    11    1
    18     7    14    1
    19     7    16    1
    20     8    30    1
    21     8    31    1
    22     9    12    1
    23     9    32    1
    24     9    33    1
    25    10    13    1
    26    10    34    1
    27    10    35    1
    28    11    15    1
    29    11    36    1
    30    11    37    1
    31    12    13    1
    32    12    38    1
    33    12    39    1
    34    13    40    1
    35    13    41    1
    36    14    17    1
    37    14    42    1
    38    14    43    1
    39    15    44    1
    40    15    45    1
    41    16    18   ar
    42    17    46    1
    43    17    47    1
    44    18    19   ar
    45    18    48    1
    46    19    22   ar
    47    19    49    1
    48    20    22   ar
    49    20    50    1
    50    21    23    1
    51    21    51    1
    52    21    52    1
    53    22    53    1
    54    23    24   ar
    55    24    25   ar
    56    25    26   ar
    57    25    54    1
    58    26    55    1
    59    27    56    1
    60    27    57    1
    61    27    58    1
@<TRIPOS>MOLECULE
66555030
 58 61 0 0 0
SMALL
GASTEIGER

@<TRIPOS>ATOM
      1 S          -0.7569   -2.9182    2.2296 S.2     1  UNL1       -0.0926
      2 O           3.7389    2.0185   -0.6934 O.3     1  UNL1       -0.3733
      3 O          -1.4333   -3.0073    6.0342 O.3     1  UNL1       -0.4941
      4 N           2.6903   -1.7085    0.4687 N.ar    1  UNL1       -0.2593
      5 N          -1.4031   -0.1338    2.6236 N.4     1  UNL1        0.2308
      6 C           3.8512    1.2252    0.4942 C.3     1  UNL1        0.0704
      7 C           1.4231    0.3747    0.1125 C.3     1  UNL1        0.0224
      8 C           2.4643    0.9676    1.1076 C.3     1  UNL1       -0.0124
      9 C           4.7367    2.0144    1.4725 C.3     1  UNL1       -0.0237
     10 C           4.7153   -0.0215    0.2655 C.3     1  UNL1       -0.0237
     11 C           1.4573    1.2951   -1.1383 C.3     1  UNL1       -0.0181
     12 C           6.1616    1.8150    0.9589 C.3     1  UNL1       -0.0504
     13 C           6.1397    0.5192    0.1522 C.3     1  UNL1       -0.0504
     14 C           0.0115    0.4968    0.7385 C.3     1  UNL1       -0.0013
     15 C           2.8671    1.4887   -1.6863 C.3     1  UNL1        0.0492
     16 C           1.6501   -1.1244   -0.1669 C.ar    1  UNL1        0.0478
     17 C          -0.0619   -0.2494    2.0632 C.3     1  UNL1       -0.0325
     18 C           0.7985   -1.7894   -1.0344 C.ar    1  UNL1       -0.0398
     19 C           1.0295   -3.1412   -1.2641 C.ar    1  UNL1       -0.0586
     20 C           2.8838   -3.0235    0.2205 C.ar    1  UNL1        0.0279
     21 C          -1.4936   -0.8268    3.9010 C.3     1  UNL1        0.0021
     22 C           2.0898   -3.7774   -0.6284 C.ar    1  UNL1       -0.0436
     23 C          -1.1676   -2.2907    3.7689 C.ar    1  UNL1        0.0756
     24 C          -1.1458   -3.2620    4.7457 C.ar    1  UNL1        0.1353
     25 C          -0.7866   -4.5380    4.2232 C.ar    1  UNL1       -0.0124
     26 C          -0.5480   -4.4935    2.8673 C.ar    1  UNL1       -0.0203
     27 C          -2.3537   -1.9430    6.3129 C.3     1  UNL1        0.0788
     28 H          -2.0733   -0.5436    1.9730 H       1  UNL1        0.2017
     29 H          -1.6099    0.8537    2.7730 H       1  UNL1        0.2017
     30 H           2.0834    1.8968    1.4769 H       1  UNL1        0.0302
     31 H           2.6010    0.2383    1.8785 H       1  UNL1        0.0302
     32 H           4.6369    1.6291    2.4657 H       1  UNL1        0.0293
     33 H           4.4653    3.0484    1.5180 H       1  UNL1        0.0293
     34 H           4.4274   -0.5217   -0.6355 H       1  UNL1        0.0293
     35 H           4.6127   -0.7389    1.0527 H       1  UNL1        0.0293
     36 H           1.0594    2.2516   -0.8707 H       1  UNL1        0.0296
     37 H           0.8746    0.8247   -1.9025 H       1  UNL1        0.0296
     38 H           6.8441    1.7313    1.7787 H       1  UNL1        0.0266
     39 H           6.4830    2.6431    0.3623 H       1  UNL1        0.0266
     40 H           6.3834    0.7140   -0.8713 H       1  UNL1        0.0266
     41 H           6.8570   -0.1844    0.5201 H       1  UNL1        0.0266
     42 H          -0.7081    0.0833    0.0632 H       1  UNL1        0.0326
     43 H          -0.1948    1.5314    0.9172 H       1  UNL1        0.0326
     44 H           3.2463    0.5437   -2.0149 H       1  UNL1        0.0560
     45 H           2.8212    2.1815   -2.5004 H       1  UNL1        0.0560
     46 H           0.1675   -1.2821    1.9020 H       1  UNL1        0.0814
     47 H           0.6435    0.1751    2.7466 H       1  UNL1        0.0814
     48 H           0.0175   -1.2970   -1.4954 H       1  UNL1        0.0636
     49 H           0.4163   -3.6701   -1.9039 H       1  UNL1        0.0619
     50 H           3.6714   -3.4946    0.6925 H       1  UNL1        0.0829
     51 H          -2.4896   -0.7267    4.2791 H       1  UNL1        0.0873
     52 H          -0.7821   -0.3871    4.5683 H       1  UNL1        0.0873
     53 H           2.2794   -4.7799   -0.7841 H       1  UNL1        0.0633
     54 H          -0.7138   -5.3949    4.7936 H       1  UNL1        0.0659
     55 H          -0.2755   -5.3130    2.3024 H       1  UNL1        0.0694
     56 H          -2.4871   -1.8547    7.3709 H       1  UNL1        0.0660
     57 H          -3.2953   -2.1558    5.8512 H       1  UNL1        0.0660
     58 H          -1.9654   -1.0247    5.9244 H       1  UNL1        0.0660
@<TRIPOS>UNITY_ATOM_ATTR
5 1
charge 1
@<TRIPOS>BOND
     1     1    23   ar
     2     1    26   ar
     3     2     6    1
     4     2    15    1
     5     3    24    1
     6     3    27    1
     7     4    16   ar
     8     4    20   ar
     9     5    17    1
    10     5    21    1
    11     5    28    1
    12     5    29    1
    13     6     8    1
    14     6     9    1
    15     6    10    1
    16     7     8    1
    17     7    11    1
    18     7    14    1
    19     7    16    1
    20     8    30    1
    21     8    31    1
    22     9    12    1
    23     9    32    1
    24     9    33    1
    25    10    13    1
    26    10    34    1
    27    10    35    1
    28    11    15    1
    29    11    36    1
    30    11    37    1
    31    12    13    1
    32    12    38    1
    33    12    39    1
    34    13    40    1
    35    13    41    1
    36    14    17    1
    37    14    42    1
    38    14    43    1
    39    15    44    1
    40    15    45    1
    41    16    18   ar
    42    17    46    1
    43    17    47    1
    44    18    19   ar
    45    18    48    1
    46    19    22   ar
    47    19    49    1
    48    20    22   ar
    49    20    50    1
    50    21    23    1
    51    21    51    1
    52    21    52    1
    53    22    53    1
    54    23    24   ar
    55    24    25   ar
    56    25    26   ar
    57    25    54    1
    58    26    55    1
    59    27    56    1
    60    27    57    1
    61    27    58    1
@<TRIPOS>MOLECULE
66555030
 58 61 0 0 0
SMALL
GASTEIGER

@<TRIPOS>ATOM
      1 S          -1.5002   -3.0892    2.2912 S.2     1  UNL1       -0.0926
      2 O           3.7389    2.0185   -0.6934 O.3     1  UNL1       -0.3733
      3 O          -0.2654   -2.7385    5.9371 O.3     1  UNL1       -0.4941
      4 N           2.2078   -1.8488    0.8289 N.ar    1  UNL1       -0.2593
      5 N          -1.4031   -0.1338    2.6236 N.4     1  UNL1        0.2308
      6 C           3.8512    1.2252    0.4942 C.3     1  UNL1        0.0704
      7 C           1.4231    0.3747    0.1125 C.3     1  UNL1        0.0224
      8 C           2.4643    0.9676    1.1076 C.3     1  UNL1       -0.0124
      9 C           4.7367    2.0144    1.4725 C.3     1  UNL1       -0.0237
     10 C           4.7153   -0.0215    0.2655 C.3     1  UNL1       -0.0237
     11 C           1.4573    1.2951   -1.1383 C.3     1  UNL1       -0.0181
     12 C           6.1616    1.8150    0.9589 C.3     1  UNL1       -0.0504
     13 C           6.1397    0.5192    0.1522 C.3     1  UNL1       -0.0504
     14 C           0.0115    0.4968    0.7385 C.3     1  UNL1       -0.0013
     15 C           2.8671    1.4887   -1.6863 C.3     1  UNL1        0.0492
     16 C           1.6501   -1.1244   -0.1669 C.ar    1  UNL1        0.0478
     17 C          -0.0619   -0.2494    2.0632 C.3     1  UNL1       -0.0325
     18 C           1.2807   -1.6492   -1.3950 C.ar    1  UNL1       -0.0398
     19 C           1.4975   -3.0049   -1.6150 C.ar    1  UNL1       -0.0586
     20 C           2.4034   -3.1629    0.5784 C.ar    1  UNL1        0.0279
     21 C          -1.4936   -0.8268    3.9010 C.3     1  UNL1        0.0021
     22 C           2.0690   -3.7832   -0.6145 C.ar    1  UNL1       -0.0436
     23 C          -1.1676   -2.2907    3.7689 C.ar    1  UNL1        0.0756
     24 C          -0.6122   -3.1392    4.7014 C.ar    1  UNL1        0.1353
     25 C          -0.4574   -4.4622    4.1956 C.ar    1  UNL1       -0.0124
     26 C          -0.9005   -4.5746    2.8963 C.ar    1  UNL1       -0.0203
     27 C          -0.3386   -3.7044    6.9950 C.3     1  UNL1        0.0788
     28 H          -2.0733   -0.5436    1.9730 H       1  UNL1        0.2017
     29 H          -1.6099    0.8537    2.7730 H       1  UNL1        0.2017
     30 H           2.0834    1.8968    1.4769 H       1  UNL1        0.0302
     31 H           2.6010    0.2383    1.8785 H       1  UNL1        0.0302
     32 H           4.6369    1.6291    2.4657 H       1  UNL1        0.0293
     33 H           4.4653    3.0484    1.5180 H       1  UNL1        0.0293
     34 H           4.4274   -0.5217   -0.6355 H       1  UNL1        0.0293
     35 H           4.6127   -0.7389    1.0527 H       1  UNL1        0.0293
     36 H           1.0594    2.2516   -0.8707 H       1  UNL1        0.0296
     37 H           0.8746    0.8247   -1.9025 H       1  UNL1        0.0296
     38 H           6.8441    1.7313    1.7787 H       1  UNL1        0.0266
     39 H           6.4830    2.6431    0.3623 H       1  UNL1        0.0266
     40 H           6.3834    0.7140   -0.8713 H       1  UNL1        0.0266
     41 H           6.8570   -0.1844    0.5201 H       1  UNL1        0.0266
     42 H          -0.7081    0.0833    0.0632 H       1  UNL1        0.0326
     43 H          -0.1948    1.5314    0.9172 H       1  UNL1        0.0326
     44 H           3.2463    0.5437   -2.0149 H       1  UNL1        0.0560
     45 H           2.8212    2.1815   -2.5004 H       1  UNL1        0.0560
     46 H           0.1675   -1.2821    1.9020 H       1  UNL1        0.0814
     47 H           0.6435    0.1751    2.7466 H       1  UNL1        0.0814
     48 H           0.8580   -1.0527   -2.1233 H       1  UNL1        0.0636
     49 H           1.2353   -3.4318   -2.5172 H       1  UNL1        0.0619
     50 H           2.8281   -3.7395    1.3215 H       1  UNL1        0.0829
     51 H          -2.4896   -0.7267    4.2791 H       1  UNL1        0.0873
     52 H          -0.7821   -0.3871    4.5683 H       1  UNL1        0.0873
     53 H           2.2387   -4.7913   -0.7560 H       1  UNL1        0.0633
     54 H          -0.0599   -5.2444    4.7390 H       1  UNL1        0.0659
     55 H          -0.8741   -5.4507    2.3516 H       1  UNL1        0.0694
     56 H          -0.0361   -3.2494    7.9150 H       1  UNL1        0.0660
     57 H           0.3099   -4.5261    6.7733 H       1  UNL1        0.0660
     58 H          -1.3443   -4.0583    7.0859 H       1  UNL1        0.0660
@<TRIPOS>UNITY_ATOM_ATTR
5 1
charge 1
@<TRIPOS>BOND
     1     1    23   ar
     2     1    26   ar
     3     2     6    1
     4     2    15    1
     5     3    24    1
     6     3    27    1
     7     4    16   ar
     8     4    20   ar
     9     5    17    1
    10     5    21    1
    11     5    28    1
    12     5    29    1
    13     6     8    1
    14     6     9    1
    15     6    10    1
    16     7     8    1
    17     7    11    1
    18     7    14    1
    19     7    16    1
    20     8    30    1
    21     8    31    1
    22     9    12    1
    23     9    32    1
    24     9    33    1
    25    10    13    1
    26    10    34    1
    27    10    35    1
    28    11    15    1
    29    11    36    1
    30    11    37    1
    31    12    13    1
    32    12    38    1
    33    12    39    1
    34    13    40    1
    35    13    41    1
    36    14    17    1
    37    14    42    1
    38    14    43    1
    39    15    44    1
    40    15    45    1
    41    16    18   ar
    42    17    46    1
    43    17    47    1
    44    18    19   ar
    45    18    48    1
    46    19    22   ar
    47    19    49    1
    48    20    22   ar
    49    20    50    1
    50    21    23    1
    51    21    51    1
    52    21    52    1
    53    22    53    1
    54    23    24   ar
    55    24    25   ar
    56    25    26   ar
    57    25    54    1
    58    26    55    1
    59    27    56    1
    60    27    57    1
    61    27    58    1
@<TRIPOS>MOLECULE
66555030
 58 61 0 0 0
SMALL
GASTEIGER

@<TRIPOS>ATOM
      1 S          -0.1207    1.4027    4.8257 S.2     1  UNL1       -0.0926
      2 O           3.7389    2.0185   -0.6934 O.3     1  UNL1       -0.3733
      3 O          -0.0985   -2.1922    6.2458 O.3     1  UNL1       -0.4941
      4 N           1.8907   -1.4719   -1.4509 N.ar    1  UNL1       -0.2593
      5 N          -1.4031   -0.1338    2.6236 N.4     1  UNL1        0.2308
      6 C           3.8512    1.2252    0.4942 C.3     1  UNL1        0.0704
      7 C           1.4231    0.3747    0.1125 C.3     1  UNL1        0.0224
      8 C           2.4643    0.9676    1.1076 C.3     1  UNL1       -0.0124
      9 C           4.7367    2.0144    1.4725 C.3     1  UNL1       -0.0237
     10 C           4.7153   -0.0215    0.2655 C.3     1  UNL1       -0.0237
     11 C           1.4573    1.2951   -1.1383 C.3     1  UNL1       -0.0181
     12 C           6.1616    1.8150    0.9589 C.3     1  UNL1       -0.0504
     13 C           6.1397    0.5192    0.1522 C.3     1  UNL1       -0.0504
     14 C           0.0115    0.4968    0.7385 C.3     1  UNL1       -0.0013
     15 C           2.8671    1.4887   -1.6863 C.3     1  UNL1        0.0492
     16 C           1.6501   -1.1244   -0.1669 C.ar    1  UNL1        0.0478
     17 C          -0.0619   -0.2494    2.0632 C.3     1  UNL1       -0.0325
     18 C           1.5996   -2.0257    0.8843 C.ar    1  UNL1       -0.0398
     19 C           1.8099   -3.3703    0.5992 C.ar    1  UNL1       -0.0586
     20 C           2.0900   -2.7877   -1.6896 C.ar    1  UNL1        0.0279
     21 C          -1.4936   -0.8268    3.9010 C.3     1  UNL1        0.0021
     22 C           2.0605   -3.7667   -0.7097 C.ar    1  UNL1       -0.0436
     23 C          -0.5422   -0.2544    4.9179 C.ar    1  UNL1        0.0756
     24 C           0.0791   -0.8880    5.9717 C.ar    1  UNL1        0.1353
     25 C           0.9118   -0.0010    6.7133 C.ar    1  UNL1       -0.0124
     26 C           0.8955    1.2764    6.1980 C.ar    1  UNL1       -0.0203
     27 C          -1.3591   -2.7803    5.8956 C.3     1  UNL1        0.0788
     28 H          -2.0733   -0.5436    1.9730 H       1  UNL1        0.2017
     29 H          -1.6099    0.8537    2.7730 H       1  UNL1        0.2017
     30 H           2.0834    1.8968    1.4769 H       1  UNL1        0.0302
     31 H           2.6010    0.2383    1.8785 H       1  UNL1        0.0302
     32 H           4.6369    1.6291    2.4657 H       1  UNL1        0.0293
     33 H           4.4653    3.0484    1.5180 H       1  UNL1        0.0293
     34 H           4.4274   -0.5217   -0.6355 H       1  UNL1        0.0293
     35 H           4.6127   -0.7389    1.0527 H       1  UNL1        0.0293
     36 H           1.0594    2.2516   -0.8707 H       1  UNL1        0.0296
     37 H           0.8746    0.8247   -1.9025 H       1  UNL1        0.0296
     38 H           6.8441    1.7313    1.7787 H       1  UNL1        0.0266
     39 H           6.4830    2.6431    0.3623 H       1  UNL1        0.0266
     40 H           6.3834    0.7140   -0.8713 H       1  UNL1        0.0266
     41 H           6.8570   -0.1844    0.5201 H       1  UNL1        0.0266
     42 H          -0.7081    0.0833    0.0632 H       1  UNL1        0.0326
     43 H          -0.1948    1.5314    0.9172 H       1  UNL1        0.0326
     44 H           3.2463    0.5437   -2.0149 H       1  UNL1        0.0560
     45 H           2.8212    2.1815   -2.5004 H       1  UNL1        0.0560
     46 H           0.1675   -1.2821    1.9020 H       1  UNL1        0.0814
     47 H           0.6435    0.1751    2.7466 H       1  UNL1        0.0814
     48 H           1.4119   -1.7091    1.8484 H       1  UNL1        0.0636
     49 H           1.7800   -4.0712    1.3561 H       1  UNL1        0.0619
     50 H           2.2755   -3.0808   -2.6615 H       1  UNL1        0.0829
     51 H          -1.2598   -1.8601    3.7514 H       1  UNL1        0.0873
     52 H          -2.4894   -0.7070    4.2737 H       1  UNL1        0.0873
     53 H           2.2196   -4.7591   -0.9440 H       1  UNL1        0.0633
     54 H           1.4625   -0.2824    7.5394 H       1  UNL1        0.0659
     55 H           1.4324    2.0644    6.5926 H       1  UNL1        0.0694
     56 H          -1.3586   -3.8146    6.1697 H       1  UNL1        0.0660
     57 H          -1.5135   -2.6910    4.8405 H       1  UNL1        0.0660
     58 H          -2.1455   -2.2740    6.4153 H       1  UNL1        0.0660
@<TRIPOS>UNITY_ATOM_ATTR
5 1
charge 1
@<TRIPOS>BOND
     1     1    23   ar
     2     1    26   ar
     3     2     6    1
     4     2    15    1
     5     3    24    1
     6     3    27    1
     7     4    16   ar
     8     4    20   ar
     9     5    17    1
    10     5    21    1
    11     5    28    1
    12     5    29    1
    13     6     8    1
    14     6     9    1
    15     6    10    1
    16     7     8    1
    17     7    11    1
    18     7    14    1
    19     7    16    1
    20     8    30    1
    21     8    31    1
    22     9    12    1
    23     9    32    1
    24     9    33    1
    25    10    13    1
    26    10    34    1
    27    10    35    1
    28    11    15    1
    29    11    36    1
    30    11    37    1
    31    12    13    1
    32    12    38    1
    33    12    39    1
    34    13    40    1
    35    13    41    1
    36    14    17    1
    37    14    42    1
    38    14    43    1
    39    15    44    1
    40    15    45    1
    41    16    18   ar
    42    17    46    1
    43    17    47    1
    44    18    19   ar
    45    18    48    1
    46    19    22   ar
    47    19    49    1
    48    20    22   ar
    49    20    50    1
    50    21    23    1
    51    21    51    1
    52    21    52    1
    53    22    53    1
    54    23    24   ar
    55    24    25   ar
    56    25    26   ar
    57    25    54    1
    58    26    55    1
    59    27    56    1
    60    27    57    1
    61    27    58    1
@<TRIPOS>MOLECULE
66555030
 58 61 0 0 0
SMALL
GASTEIGER

@<TRIPOS>ATOM
      1 S          -1.0735    1.0175    5.9339 S.2     1  UNL1       -0.0926
      2 O           3.7389    2.0185   -0.6934 O.3     1  UNL1       -0.3733
      3 O           1.3988   -1.5874    4.5046 O.3     1  UNL1       -0.4941
      4 N           1.8907   -1.4719   -1.4509 N.ar    1  UNL1       -0.2593
      5 N          -1.4031   -0.1338    2.6236 N.4     1  UNL1        0.2308
      6 C           3.8512    1.2252    0.4942 C.3     1  UNL1        0.0704
      7 C           1.4231    0.3747    0.1125 C.3     1  UNL1        0.0224
      8 C           2.4643    0.9676    1.1076 C.3     1  UNL1       -0.0124
      9 C           4.7367    2.0144    1.4725 C.3     1  UNL1       -0.0237
     10 C           4.7153   -0.0215    0.2655 C.3     1  UNL1       -0.0237
     11 C           1.4573    1.2951   -1.1383 C.3     1  UNL1       -0.0181
     12 C           6.1616    1.8150    0.9589 C.3     1  UNL1       -0.0504
     13 C           6.1397    0.5192    0.1522 C.3     1  UNL1       -0.0504
     14 C           0.0115    0.4968    0.7385 C.3     1  UNL1       -0.0013
     15 C           2.8671    1.4887   -1.6863 C.3     1  UNL1        0.0492
     16 C           1.6501   -1.1244   -0.1669 C.ar    1  UNL1        0.0478
     17 C          -0.0619   -0.2494    2.0632 C.3     1  UNL1       -0.0325
     18 C           1.5996   -2.0257    0.8843 C.ar    1  UNL1       -0.0398
     19 C           1.8099   -3.3703    0.5992 C.ar    1  UNL1       -0.0586
     20 C           2.0900   -2.7877   -1.6896 C.ar    1  UNL1        0.0279
     21 C          -1.4936   -0.8268    3.9010 C.3     1  UNL1        0.0021
     22 C           2.0605   -3.7667   -0.7097 C.ar    1  UNL1       -0.0436
     23 C          -0.5422   -0.2544    4.9179 C.ar    1  UNL1        0.0756
     24 C           0.7630   -0.6115    5.1762 C.ar    1  UNL1        0.1353
     25 C           1.3341    0.1692    6.2224 C.ar    1  UNL1       -0.0124
     26 C           0.4440    1.0933    6.7235 C.ar    1  UNL1       -0.0203
     27 C           0.6068   -2.6687    3.9936 C.3     1  UNL1        0.0788
     28 H          -2.0733   -0.5436    1.9730 H       1  UNL1        0.2017
     29 H          -1.6099    0.8537    2.7730 H       1  UNL1        0.2017
     30 H           2.0834    1.8968    1.4769 H       1  UNL1        0.0302
     31 H           2.6010    0.2383    1.8785 H       1  UNL1        0.0302
     32 H           4.6369    1.6291    2.4657 H       1  UNL1        0.0293
     33 H           4.4653    3.0484    1.5180 H       1  UNL1        0.0293
     34 H           4.4274   -0.5217   -0.6355 H       1  UNL1        0.0293
     35 H           4.6127   -0.7389    1.0527 H       1  UNL1        0.0293
     36 H           1.0594    2.2516   -0.8707 H       1  UNL1        0.0296
     37 H           0.8746    0.8247   -1.9025 H       1  UNL1        0.0296
     38 H           6.8441    1.7313    1.7787 H       1  UNL1        0.0266
     39 H           6.4830    2.6431    0.3623 H       1  UNL1        0.0266
     40 H           6.3834    0.7140   -0.8713 H       1  UNL1        0.0266
     41 H           6.8570   -0.1844    0.5201 H       1  UNL1        0.0266
     42 H          -0.7081    0.0833    0.0632 H       1  UNL1        0.0326
     43 H          -0.1948    1.5314    0.9172 H       1  UNL1        0.0326
     44 H           3.2463    0.5437   -2.0149 H       1  UNL1        0.0560
     45 H           2.8212    2.1815   -2.5004 H       1  UNL1        0.0560
     46 H           0.1675   -1.2821    1.9020 H       1  UNL1        0.0814
     47 H           0.6435    0.1751    2.7466 H       1  UNL1        0.0814
     48 H           1.4119   -1.7091    1.8484 H       1  UNL1        0.0636
     49 H           1.7800   -4.0712    1.3561 H       1  UNL1        0.0619
     50 H           2.2755   -3.0808   -2.6615 H       1  UNL1        0.0829
     51 H          -1.2598   -1.8601    3.7514 H       1  UNL1        0.0873
     52 H          -2.4894   -0.7070    4.2737 H       1  UNL1        0.0873
     53 H           2.2196   -4.7591   -0.9440 H       1  UNL1        0.0633
     54 H           2.3011    0.0557    6.5645 H       1  UNL1        0.0659
     55 H           0.6655    1.7534    7.4851 H       1  UNL1        0.0694
     56 H           1.2401   -3.3659    3.4859 H       1  UNL1        0.0660
     57 H          -0.1217   -2.2852    3.3101 H       1  UNL1        0.0660
     58 H           0.1111   -3.1615    4.8037 H       1  UNL1        0.0660
@<TRIPOS>UNITY_ATOM_ATTR
5 1
charge 1
@<TRIPOS>BOND
     1     1    23   ar
     2     1    26   ar
     3     2     6    1
     4     2    15    1
     5     3    24    1
     6     3    27    1
     7     4    16   ar
     8     4    20   ar
     9     5    17    1
    10     5    21    1
    11     5    28    1
    12     5    29    1
    13     6     8    1
    14     6     9    1
    15     6    10    1
    16     7     8    1
    17     7    11    1
    18     7    14    1
    19     7    16    1
    20     8    30    1
    21     8    31    1
    22     9    12    1
    23     9    32    1
    24     9    33    1
    25    10    13    1
    26    10    34    1
    27    10    35    1
    28    11    15    1
    29    11    36    1
    30    11    37    1
    31    12    13    1
    32    12    38    1
    33    12    39    1
    34    13    40    1
    35    13    41    1
    36    14    17    1
    37    14    42    1
    38    14    43    1
    39    15    44    1
    40    15    45    1
    41    16    18   ar
    42    17    46    1
    43    17    47    1
    44    18    19   ar
    45    18    48    1
    46    19    22   ar
    47    19    49    1
    48    20    22   ar
    49    20    50    1
    50    21    23    1
    51    21    51    1
    52    21    52    1
    53    22    53    1
    54    23    24   ar
    55    24    25   ar
    56    25    26   ar
    57    25    54    1
    58    26    55    1
    59    27    56    1
    60    27    57    1
    61    27    58    1
@<TRIPOS>MOLECULE
66555030
 58 61 0 0 0
SMALL
GASTEIGER

@<TRIPOS>ATOM
      1 S          -2.3566   -3.5397    3.2955 S.2     1  UNL1       -0.0926
      2 O           3.7389    2.0185   -0.6934 O.3     1  UNL1       -0.3733
      3 O          -1.0166   -0.3704    5.0562 O.3     1  UNL1       -0.4941
      4 N           0.5529   -1.8606   -0.4523 N.ar    1  UNL1       -0.2593
      5 N           0.2477   -1.6591    1.8559 N.4     1  UNL1        0.2308
      6 C           3.8512    1.2252    0.4942 C.3     1  UNL1        0.0704
      7 C           1.4231    0.3747    0.1125 C.3     1  UNL1        0.0224
      8 C           2.4643    0.9676    1.1076 C.3     1  UNL1       -0.0124
      9 C           4.7367    2.0144    1.4725 C.3     1  UNL1       -0.0237
     10 C           4.7153   -0.0215    0.2655 C.3     1  UNL1       -0.0237
     11 C           1.4573    1.2951   -1.1383 C.3     1  UNL1       -0.0181
     12 C           6.1616    1.8150    0.9589 C.3     1  UNL1       -0.0504
     13 C           6.1397    0.5192    0.1522 C.3     1  UNL1       -0.0504
     14 C           0.0115    0.4968    0.7385 C.3     1  UNL1       -0.0013
     15 C           2.8671    1.4887   -1.6863 C.3     1  UNL1        0.0492
     16 C           1.6501   -1.1244   -0.1669 C.ar    1  UNL1        0.0478
     17 C          -0.0619   -0.2494    2.0632 C.3     1  UNL1       -0.0325
     18 C           2.9364   -1.6370   -0.1153 C.ar    1  UNL1       -0.0398
     19 C           3.1075   -2.9925   -0.3735 C.ar    1  UNL1       -0.0586
     20 C           0.7583   -3.1743   -0.6974 C.ar    1  UNL1        0.0279
     21 C           0.1675   -2.3980    3.1079 C.3     1  UNL1        0.0021
     22 C           2.0028   -3.7827   -0.6710 C.ar    1  UNL1       -0.0436
     23 C          -1.2117   -2.3354    3.7085 C.ar    1  UNL1        0.0756
     24 C          -1.7292   -1.4100    4.5882 C.ar    1  UNL1        0.1353
     25 C          -3.0835   -1.6941    4.9278 C.ar    1  UNL1       -0.0124
     26 C          -3.5495   -2.8252    4.2948 C.ar    1  UNL1       -0.0203
     27 C          -1.6627    0.5178    5.9789 C.3     1  UNL1        0.0788
     28 H           1.1919   -1.7417    1.4791 H       1  UNL1        0.2017
     29 H          -0.4317   -2.0495    1.2028 H       1  UNL1        0.2017
     30 H           2.0834    1.8968    1.4769 H       1  UNL1        0.0302
     31 H           2.6010    0.2383    1.8785 H       1  UNL1        0.0302
     32 H           4.6369    1.6291    2.4657 H       1  UNL1        0.0293
     33 H           4.4653    3.0484    1.5180 H       1  UNL1        0.0293
     34 H           4.4274   -0.5217   -0.6355 H       1  UNL1        0.0293
     35 H           4.6127   -0.7389    1.0527 H       1  UNL1        0.0293
     36 H           1.0594    2.2516   -0.8707 H       1  UNL1        0.0296
     37 H           0.8746    0.8247   -1.9025 H       1  UNL1        0.0296
     38 H           6.8441    1.7313    1.7787 H       1  UNL1        0.0266
     39 H           6.4830    2.6431    0.3623 H       1  UNL1        0.0266
     40 H           6.3834    0.7140   -0.8713 H       1  UNL1        0.0266
     41 H           6.8570   -0.1844    0.5201 H       1  UNL1        0.0266
     42 H          -0.7081    0.0833    0.0632 H       1  UNL1        0.0326
     43 H          -0.1948    1.5314    0.9172 H       1  UNL1        0.0326
     44 H           3.2463    0.5437   -2.0149 H       1  UNL1        0.0560
     45 H           2.8212    2.1815   -2.5004 H       1  UNL1        0.0560
     46 H           0.6443    0.1721    2.7476 H       1  UNL1        0.0814
     47 H          -1.0503   -0.1608    2.4635 H       1  UNL1        0.0814
     48 H           3.7420   -1.0318    0.1077 H       1  UNL1        0.0636
     49 H           4.0506   -3.4104   -0.3443 H       1  UNL1        0.0619
     50 H          -0.0624   -3.7598   -0.9176 H       1  UNL1        0.0829
     51 H           0.8665   -1.9799    3.8019 H       1  UNL1        0.0873
     52 H           0.3943   -3.4234    2.9033 H       1  UNL1        0.0873
     53 H           2.1066   -4.7908   -0.8661 H       1  UNL1        0.0633
     54 H          -3.6489   -1.1198    5.5725 H       1  UNL1        0.0659
     55 H          -4.5049   -3.1980    4.4092 H       1  UNL1        0.0694
     56 H          -0.9817    1.2921    6.2648 H       1  UNL1        0.0660
     57 H          -1.9662   -0.0289    6.8471 H       1  UNL1        0.0660
     58 H          -2.5220    0.9528    5.5128 H       1  UNL1        0.0660
@<TRIPOS>UNITY_ATOM_ATTR
5 1
charge 1
@<TRIPOS>BOND
     1     1    23   ar
     2     1    26   ar
     3     2     6    1
     4     2    15    1
     5     3    24    1
     6     3    27    1
     7     4    16   ar
     8     4    20   ar
     9     5    17    1
    10     5    21    1
    11     5    28    1
    12     5    29    1
    13     6     8    1
    14     6     9    1
    15     6    10    1
    16     7     8    1
    17     7    11    1
    18     7    14    1
    19     7    16    1
    20     8    30    1
    21     8    31    1
    22     9    12    1
    23     9    32    1
    24     9    33    1
    25    10    13    1
    26    10    34    1
    27    10    35    1
    28    11    15    1
    29    11    36    1
    30    11    37    1
    31    12    13    1
    32    12    38    1
    33    12    39    1
    34    13    40    1
    35    13    41    1
    36    14    17    1
    37    14    42    1
    38    14    43    1
    39    15    44    1
    40    15    45    1
    41    16    18   ar
    42    17    46    1
    43    17    47    1
    44    18    19   ar
    45    18    48    1
    46    19    22   ar
    47    19    49    1
    48    20    22   ar
    49    20    50    1
    50    21    23    1
    51    21    51    1
    52    21    52    1
    53    22    53    1
    54    23    24   ar
    55    24    25   ar
    56    25    26   ar
    57    25    54    1
    58    26    55    1
    59    27    56    1
    60    27    57    1
    61    27    58    1
@<TRIPOS>MOLECULE
66555030
 58 61 0 0 0
SMALL
GASTEIGER

@<TRIPOS>ATOM
      1 S          -2.5661   -2.1787    2.6726 S.2     1  UNL1       -0.0926
      2 O           3.7389    2.0185   -0.6934 O.3     1  UNL1       -0.3733
      3 O          -0.6877   -2.5091    6.0346 O.3     1  UNL1       -0.4941
      4 N           0.7973   -1.7152   -1.0334 N.ar    1  UNL1       -0.2593
      5 N           0.2477   -1.6591    1.8559 N.4     1  UNL1        0.2308
      6 C           3.8512    1.2252    0.4942 C.3     1  UNL1        0.0704
      7 C           1.4231    0.3747    0.1125 C.3     1  UNL1        0.0224
      8 C           2.4643    0.9676    1.1076 C.3     1  UNL1       -0.0124
      9 C           4.7367    2.0144    1.4725 C.3     1  UNL1       -0.0237
     10 C           4.7153   -0.0215    0.2655 C.3     1  UNL1       -0.0237
     11 C           1.4573    1.2951   -1.1383 C.3     1  UNL1       -0.0181
     12 C           6.1616    1.8150    0.9589 C.3     1  UNL1       -0.0504
     13 C           6.1397    0.5192    0.1522 C.3     1  UNL1       -0.0504
     14 C           0.0115    0.4968    0.7385 C.3     1  UNL1       -0.0013
     15 C           2.8671    1.4887   -1.6863 C.3     1  UNL1        0.0492
     16 C           1.6501   -1.1244   -0.1669 C.ar    1  UNL1        0.0478
     17 C          -0.0619   -0.2494    2.0632 C.3     1  UNL1       -0.0325
     18 C           2.6925   -1.7823    0.4660 C.ar    1  UNL1       -0.0398
     19 C           2.8712   -3.1336    0.1916 C.ar    1  UNL1       -0.0586
     20 C           1.0020   -3.0297   -1.2753 C.ar    1  UNL1        0.0279
     21 C           0.1675   -2.3980    3.1079 C.3     1  UNL1        0.0021
     22 C           2.0142   -3.7766   -0.6946 C.ar    1  UNL1       -0.0436
     23 C          -1.2117   -2.3354    3.7085 C.ar    1  UNL1        0.0756
     24 C          -1.5789   -2.3870    5.0353 C.ar    1  UNL1        0.1353
     25 C          -2.9909   -2.2973    5.2034 C.ar    1  UNL1       -0.0124
     26 C          -3.6490   -2.1801    3.9990 C.ar    1  UNL1       -0.0203
     27 C          -1.0176   -1.9134    7.2971 C.3     1  UNL1        0.0788
     28 H           1.1919   -1.7417    1.4791 H       1  UNL1        0.2017
     29 H          -0.4317   -2.0495    1.2028 H       1  UNL1        0.2017
     30 H           2.0834    1.8968    1.4769 H       1  UNL1        0.0302
     31 H           2.6010    0.2383    1.8785 H       1  UNL1        0.0302
     32 H           4.6369    1.6291    2.4657 H       1  UNL1        0.0293
     33 H           4.4653    3.0484    1.5180 H       1  UNL1        0.0293
     34 H           4.4274   -0.5217   -0.6355 H       1  UNL1        0.0293
     35 H           4.6127   -0.7389    1.0527 H       1  UNL1        0.0293
     36 H           1.0594    2.2516   -0.8707 H       1  UNL1        0.0296
     37 H           0.8746    0.8247   -1.9025 H       1  UNL1        0.0296
     38 H           6.8441    1.7313    1.7787 H       1  UNL1        0.0266
     39 H           6.4830    2.6431    0.3623 H       1  UNL1        0.0266
     40 H           6.3834    0.7140   -0.8713 H       1  UNL1        0.0266
     41 H           6.8570   -0.1844    0.5201 H       1  UNL1        0.0266
     42 H          -0.7081    0.0833    0.0632 H       1  UNL1        0.0326
     43 H          -0.1948    1.5314    0.9172 H       1  UNL1        0.0326
     44 H           3.2463    0.5437   -2.0149 H       1  UNL1        0.0560
     45 H           2.8212    2.1815   -2.5004 H       1  UNL1        0.0560
     46 H           0.6443    0.1721    2.7476 H       1  UNL1        0.0814
     47 H          -1.0503   -0.1608    2.4635 H       1  UNL1        0.0814
     48 H           3.3166   -1.2850    1.1204 H       1  UNL1        0.0636
     49 H           3.6368   -3.6573    0.6439 H       1  UNL1        0.0619
     50 H           0.3649   -3.5059   -1.9329 H       1  UNL1        0.0829
     51 H           0.8665   -1.9799    3.8019 H       1  UNL1        0.0873
     52 H           0.3943   -3.4234    2.9033 H       1  UNL1        0.0873
     53 H           2.1285   -4.7787   -0.9131 H       1  UNL1        0.0633
     54 H          -3.4650   -2.3176    6.1198 H       1  UNL1        0.0659
     55 H          -4.6739   -2.1023    3.9069 H       1  UNL1        0.0694
     56 H          -0.2232   -2.0881    7.9924 H       1  UNL1        0.0660
     57 H          -1.9211   -2.3478    7.6712 H       1  UNL1        0.0660
     58 H          -1.1546   -0.8599    7.1694 H       1  UNL1        0.0660
@<TRIPOS>UNITY_ATOM_ATTR
5 1
charge 1
@<TRIPOS>BOND
     1     1    23   ar
     2     1    26   ar
     3     2     6    1
     4     2    15    1
     5     3    24    1
     6     3    27    1
     7     4    16   ar
     8     4    20   ar
     9     5    17    1
    10     5    21    1
    11     5    28    1
    12     5    29    1
    13     6     8    1
    14     6     9    1
    15     6    10    1
    16     7     8    1
    17     7    11    1
    18     7    14    1
    19     7    16    1
    20     8    30    1
    21     8    31    1
    22     9    12    1
    23     9    32    1
    24     9    33    1
    25    10    13    1
    26    10    34    1
    27    10    35    1
    28    11    15    1
    29    11    36    1
    30    11    37    1
    31    12    13    1
    32    12    38    1
    33    12    39    1
    34    13    40    1
    35    13    41    1
    36    14    17    1
    37    14    42    1
    38    14    43    1
    39    15    44    1
    40    15    45    1
    41    16    18   ar
    42    17    46    1
    43    17    47    1
    44    18    19   ar
    45    18    48    1
    46    19    22   ar
    47    19    49    1
    48    20    22   ar
    49    20    50    1
    50    21    23    1
    51    21    51    1
    52    21    52    1
    53    22    53    1
    54    23    24   ar
    55    24    25   ar
    56    25    26   ar
    57    25    54    1
    58    26    55    1
    59    27    56    1
    60    27    57    1
    61    27    58    1
@<TRIPOS>MOLECULE
66555030
 58 61 0 0 0
SMALL
GASTEIGER

@<TRIPOS>ATOM
      1 S          -4.5747    2.3473    2.1583 S.2     1  UNL1       -0.0926
      2 O           3.7389    2.0185   -0.6934 O.3     1  UNL1       -0.3733
      3 O          -3.1191    5.5558    3.7478 O.3     1  UNL1       -0.4941
      4 N           1.5734   -1.9572    0.8951 N.ar    1  UNL1       -0.2593
      5 N          -1.6674    2.0414    1.6033 N.4     1  UNL1        0.2308
      6 C           3.8512    1.2252    0.4942 C.3     1  UNL1        0.0704
      7 C           1.4231    0.3747    0.1125 C.3     1  UNL1        0.0224
      8 C           2.4643    0.9676    1.1076 C.3     1  UNL1       -0.0124
      9 C           4.7367    2.0144    1.4725 C.3     1  UNL1       -0.0237
     10 C           4.7153   -0.0215    0.2655 C.3     1  UNL1       -0.0237
     11 C           1.4573    1.2951   -1.1383 C.3     1  UNL1       -0.0181
     12 C           6.1616    1.8150    0.9589 C.3     1  UNL1       -0.0504
     13 C           6.1397    0.5192    0.1522 C.3     1  UNL1       -0.0504
     14 C           0.0115    0.4968    0.7385 C.3     1  UNL1       -0.0013
     15 C           2.8671    1.4887   -1.6863 C.3     1  UNL1        0.0492
     16 C           1.6501   -1.1244   -0.1669 C.ar    1  UNL1        0.0478
     17 C          -0.3430    1.9539    0.9995 C.3     1  UNL1       -0.0325
     18 C           1.9150   -1.5407   -1.4617 C.ar    1  UNL1       -0.0398
     19 C           2.1137   -2.8994   -1.6805 C.ar    1  UNL1       -0.0586
     20 C           1.7723   -3.2707    0.6437 C.ar    1  UNL1        0.0279
     21 C          -2.0362    3.4286    1.8475 C.3     1  UNL1        0.0021
     22 C           2.0424   -3.7875   -0.6130 C.ar    1  UNL1       -0.0436
     23 C          -3.3943    3.5433    2.4871 C.ar    1  UNL1        0.0756
     24 C          -3.8660    4.5133    3.3442 C.ar    1  UNL1        0.1353
     25 C          -5.2141    4.2708    3.7364 C.ar    1  UNL1       -0.0124
     26 C          -5.7215    3.1253    3.1640 C.ar    1  UNL1       -0.0203
     27 C          -1.7750    5.6423    3.2542 C.3     1  UNL1        0.0788
     28 H          -1.6646    1.5356    2.4891 H       1  UNL1        0.2017
     29 H          -2.3460    1.6317    0.9615 H       1  UNL1        0.2017
     30 H           2.0834    1.8968    1.4769 H       1  UNL1        0.0302
     31 H           2.6010    0.2383    1.8785 H       1  UNL1        0.0302
     32 H           4.6369    1.6291    2.4657 H       1  UNL1        0.0293
     33 H           4.4653    3.0484    1.5180 H       1  UNL1        0.0293
     34 H           4.4274   -0.5217   -0.6355 H       1  UNL1        0.0293
     35 H           4.6127   -0.7389    1.0527 H       1  UNL1        0.0293
     36 H           1.0594    2.2516   -0.8707 H       1  UNL1        0.0296
     37 H           0.8746    0.8247   -1.9025 H       1  UNL1        0.0296
     38 H           6.8441    1.7313    1.7787 H       1  UNL1        0.0266
     39 H           6.4830    2.6431    0.3623 H       1  UNL1        0.0266
     40 H           6.3834    0.7140   -0.8713 H       1  UNL1        0.0266
     41 H           6.8570   -0.1844    0.5201 H       1  UNL1        0.0266
     42 H          -0.0089   -0.0399    1.6640 H       1  UNL1        0.0326
     43 H          -0.7025    0.0887    0.0539 H       1  UNL1        0.0326
     44 H           3.2463    0.5437   -2.0149 H       1  UNL1        0.0560
     45 H           2.8212    2.1815   -2.5004 H       1  UNL1        0.0560
     46 H           0.3788    2.3813    1.6638 H       1  UNL1        0.0814
     47 H          -0.3422    2.4885    0.0726 H       1  UNL1        0.0814
     48 H           1.9632   -0.8638   -2.2391 H       1  UNL1        0.0636
     49 H           2.3131   -3.2473   -2.6314 H       1  UNL1        0.0619
     50 H           1.7197   -3.9288    1.4369 H       1  UNL1        0.0829
     51 H          -2.0473    3.9530    0.9149 H       1  UNL1        0.0873
     52 H          -1.3168    3.8502    2.5181 H       1  UNL1        0.0873
     53 H           2.1863   -4.7999   -0.7525 H       1  UNL1        0.0633
     54 H          -5.7478    4.8817    4.3744 H       1  UNL1        0.0659
     55 H          -6.6799    2.7770    3.3227 H       1  UNL1        0.0694
     56 H          -1.3033    6.5151    3.6552 H       1  UNL1        0.0660
     57 H          -1.7907    5.7042    2.1861 H       1  UNL1        0.0660
     58 H          -1.2286    4.7723    3.5531 H       1  UNL1        0.0660
@<TRIPOS>UNITY_ATOM_ATTR
5 1
charge 1
@<TRIPOS>BOND
     1     1    23   ar
     2     1    26   ar
     3     2     6    1
     4     2    15    1
     5     3    24    1
     6     3    27    1
     7     4    16   ar
     8     4    20   ar
     9     5    17    1
    10     5    21    1
    11     5    28    1
    12     5    29    1
    13     6     8    1
    14     6     9    1
    15     6    10    1
    16     7     8    1
    17     7    11    1
    18     7    14    1
    19     7    16    1
    20     8    30    1
    21     8    31    1
    22     9    12    1
    23     9    32    1
    24     9    33    1
    25    10    13    1
    26    10    34    1
    27    10    35    1
    28    11    15    1
    29    11    36    1
    30    11    37    1
    31    12    13    1
    32    12    38    1
    33    12    39    1
    34    13    40    1
    35    13    41    1
    36    14    17    1
    37    14    42    1
    38    14    43    1
    39    15    44    1
    40    15    45    1
    41    16    18   ar
    42    17    46    1
    43    17    47    1
    44    18    19   ar
    45    18    48    1
    46    19    22   ar
    47    19    49    1
    48    20    22   ar
    49    20    50    1
    50    21    23    1
    51    21    51    1
    52    21    52    1
    53    22    53    1
    54    23    24   ar
    55    24    25   ar
    56    25    26   ar
    57    25    54    1
    58    26    55    1
    59    27    56    1
    60    27    57    1
    61    27    58    1
@<TRIPOS>MOLECULE
66555030
 58 61 0 0 0
SMALL
GASTEIGER

@<TRIPOS>ATOM
      1 S          -4.7576    2.9069    1.6695 S.2     1  UNL1       -0.0926
      2 O           3.7389    2.0185   -0.6934 O.3     1  UNL1       -0.3733
      3 O          -2.8318    4.6764    4.5157 O.3     1  UNL1       -0.4941
      4 N           1.5734   -1.9572    0.8951 N.ar    1  UNL1       -0.2593
      5 N          -1.6674    2.0414    1.6033 N.4     1  UNL1        0.2308
      6 C           3.8512    1.2252    0.4942 C.3     1  UNL1        0.0704
      7 C           1.4231    0.3747    0.1125 C.3     1  UNL1        0.0224
      8 C           2.4643    0.9676    1.1076 C.3     1  UNL1       -0.0124
      9 C           4.7367    2.0144    1.4725 C.3     1  UNL1       -0.0237
     10 C           4.7153   -0.0215    0.2655 C.3     1  UNL1       -0.0237
     11 C           1.4573    1.2951   -1.1383 C.3     1  UNL1       -0.0181
     12 C           6.1616    1.8150    0.9589 C.3     1  UNL1       -0.0504
     13 C           6.1397    0.5192    0.1522 C.3     1  UNL1       -0.0504
     14 C           0.0115    0.4968    0.7385 C.3     1  UNL1       -0.0013
     15 C           2.8671    1.4887   -1.6863 C.3     1  UNL1        0.0492
     16 C           1.6501   -1.1244   -0.1669 C.ar    1  UNL1        0.0478
     17 C          -0.3430    1.9539    0.9995 C.3     1  UNL1       -0.0325
     18 C           1.9150   -1.5407   -1.4617 C.ar    1  UNL1       -0.0398
     19 C           2.1137   -2.8994   -1.6805 C.ar    1  UNL1       -0.0586
     20 C           1.7723   -3.2707    0.6437 C.ar    1  UNL1        0.0279
     21 C          -2.0362    3.4286    1.8475 C.3     1  UNL1        0.0021
     22 C           2.0424   -3.7875   -0.6130 C.ar    1  UNL1       -0.0436
     23 C          -3.3943    3.5433    2.4871 C.ar    1  UNL1        0.0756
     24 C          -3.7347    4.1116    3.6950 C.ar    1  UNL1        0.1353
     25 C          -5.1332    4.0227    3.9528 C.ar    1  UNL1       -0.0124
     26 C          -5.8084    3.3904    2.9321 C.ar    1  UNL1       -0.0203
     27 C          -3.2717    5.7633    5.3419 C.3     1  UNL1        0.0788
     28 H          -1.6646    1.5356    2.4891 H       1  UNL1        0.2017
     29 H          -2.3460    1.6317    0.9615 H       1  UNL1        0.2017
     30 H           2.0834    1.8968    1.4769 H       1  UNL1        0.0302
     31 H           2.6010    0.2383    1.8785 H       1  UNL1        0.0302
     32 H           4.6369    1.6291    2.4657 H       1  UNL1        0.0293
     33 H           4.4653    3.0484    1.5180 H       1  UNL1        0.0293
     34 H           4.4274   -0.5217   -0.6355 H       1  UNL1        0.0293
     35 H           4.6127   -0.7389    1.0527 H       1  UNL1        0.0293
     36 H           1.0594    2.2516   -0.8707 H       1  UNL1        0.0296
     37 H           0.8746    0.8247   -1.9025 H       1  UNL1        0.0296
     38 H           6.8441    1.7313    1.7787 H       1  UNL1        0.0266
     39 H           6.4830    2.6431    0.3623 H       1  UNL1        0.0266
     40 H           6.3834    0.7140   -0.8713 H       1  UNL1        0.0266
     41 H           6.8570   -0.1844    0.5201 H       1  UNL1        0.0266
     42 H          -0.0089   -0.0399    1.6640 H       1  UNL1        0.0326
     43 H          -0.7025    0.0887    0.0539 H       1  UNL1        0.0326
     44 H           3.2463    0.5437   -2.0149 H       1  UNL1        0.0560
     45 H           2.8212    2.1815   -2.5004 H       1  UNL1        0.0560
     46 H           0.3788    2.3813    1.6638 H       1  UNL1        0.0814
     47 H          -0.3422    2.4885    0.0726 H       1  UNL1        0.0814
     48 H           1.9632   -0.8638   -2.2391 H       1  UNL1        0.0636
     49 H           2.3131   -3.2473   -2.6314 H       1  UNL1        0.0619
     50 H           1.7197   -3.9288    1.4369 H       1  UNL1        0.0829
     51 H          -2.0473    3.9530    0.9149 H       1  UNL1        0.0873
     52 H          -1.3168    3.8502    2.5181 H       1  UNL1        0.0873
     53 H           2.1863   -4.7999   -0.7525 H       1  UNL1        0.0633
     54 H          -5.5871    4.3891    4.8041 H       1  UNL1        0.0659
     55 H          -6.8274    3.2274    2.9288 H       1  UNL1        0.0694
     56 H          -2.4542    6.1116    5.9381 H       1  UNL1        0.0660
     57 H          -4.0619    5.4285    5.9809 H       1  UNL1        0.0660
     58 H          -3.6269    6.5607    4.7231 H       1  UNL1        0.0660
@<TRIPOS>UNITY_ATOM_ATTR
5 1
charge 1
@<TRIPOS>BOND
     1     1    23   ar
     2     1    26   ar
     3     2     6    1
     4     2    15    1
     5     3    24    1
     6     3    27    1
     7     4    16   ar
     8     4    20   ar
     9     5    17    1
    10     5    21    1
    11     5    28    1
    12     5    29    1
    13     6     8    1
    14     6     9    1
    15     6    10    1
    16     7     8    1
    17     7    11    1
    18     7    14    1
    19     7    16    1
    20     8    30    1
    21     8    31    1
    22     9    12    1
    23     9    32    1
    24     9    33    1
    25    10    13    1
    26    10    34    1
    27    10    35    1
    28    11    15    1
    29    11    36    1
    30    11    37    1
    31    12    13    1
    32    12    38    1
    33    12    39    1
    34    13    40    1
    35    13    41    1
    36    14    17    1
    37    14    42    1
    38    14    43    1
    39    15    44    1
    40    15    45    1
    41    16    18   ar
    42    17    46    1
    43    17    47    1
    44    18    19   ar
    45    18    48    1
    46    19    22   ar
    47    19    49    1
    48    20    22   ar
    49    20    50    1
    50    21    23    1
    51    21    51    1
    52    21    52    1
    53    22    53    1
    54    23    24   ar
    55    24    25   ar
    56    25    26   ar
    57    25    54    1
    58    26    55    1
    59    27    56    1
    60    27    57    1
    61    27    58    1
@<TRIPOS>MOLECULE
66555030
 58 61 0 0 0
SMALL
GASTEIGER

@<TRIPOS>ATOM
      1 S          -5.2723    2.4042    0.4804 S.2     1  UNL1       -0.0926
      2 O           3.7389    2.0185   -0.6934 O.3     1  UNL1       -0.3733
      3 O          -3.7466    0.3123    3.3503 O.3     1  UNL1       -0.4941
      4 N           0.7973   -1.7152   -1.0334 N.ar    1  UNL1       -0.2593
      5 N          -1.6674    2.0414    1.6033 N.4     1  UNL1        0.2308
      6 C           3.8512    1.2252    0.4942 C.3     1  UNL1        0.0704
      7 C           1.4231    0.3747    0.1125 C.3     1  UNL1        0.0224
      8 C           2.4643    0.9676    1.1076 C.3     1  UNL1       -0.0124
      9 C           4.7367    2.0144    1.4725 C.3     1  UNL1       -0.0237
     10 C           4.7153   -0.0215    0.2655 C.3     1  UNL1       -0.0237
     11 C           1.4573    1.2951   -1.1383 C.3     1  UNL1       -0.0181
     12 C           6.1616    1.8150    0.9589 C.3     1  UNL1       -0.0504
     13 C           6.1397    0.5192    0.1522 C.3     1  UNL1       -0.0504
     14 C           0.0115    0.4968    0.7385 C.3     1  UNL1       -0.0013
     15 C           2.8671    1.4887   -1.6863 C.3     1  UNL1        0.0492
     16 C           1.6501   -1.1244   -0.1669 C.ar    1  UNL1        0.0478
     17 C          -0.3430    1.9539    0.9995 C.3     1  UNL1       -0.0325
     18 C           2.6925   -1.7823    0.4660 C.ar    1  UNL1       -0.0398
     19 C           2.8712   -3.1336    0.1916 C.ar    1  UNL1       -0.0586
     20 C           1.0020   -3.0297   -1.2753 C.ar    1  UNL1        0.0279
     21 C          -2.6752    1.4543    0.7318 C.3     1  UNL1        0.0021
     22 C           2.0142   -3.7766   -0.6946 C.ar    1  UNL1       -0.0436
     23 C          -4.0548    1.5483    1.3273 C.ar    1  UNL1        0.0756
     24 C          -4.5208    1.0251    2.5135 C.ar    1  UNL1        0.1353
     25 C          -5.8955    1.3308    2.7295 C.ar    1  UNL1       -0.0124
     26 C          -6.4278    2.0760    1.7006 C.ar    1  UNL1       -0.0203
     27 C          -2.6739   -0.4492    2.7786 C.3     1  UNL1        0.0788
     28 H          -1.8964    3.0220    1.7656 H       1  UNL1        0.2017
     29 H          -1.6586    1.5273    2.4842 H       1  UNL1        0.2017
     30 H           2.0834    1.8968    1.4769 H       1  UNL1        0.0302
     31 H           2.6010    0.2383    1.8785 H       1  UNL1        0.0302
     32 H           4.6369    1.6291    2.4657 H       1  UNL1        0.0293
     33 H           4.4653    3.0484    1.5180 H       1  UNL1        0.0293
     34 H           4.4274   -0.5217   -0.6355 H       1  UNL1        0.0293
     35 H           4.6127   -0.7389    1.0527 H       1  UNL1        0.0293
     36 H           1.0594    2.2516   -0.8707 H       1  UNL1        0.0296
     37 H           0.8746    0.8247   -1.9025 H       1  UNL1        0.0296
     38 H           6.8441    1.7313    1.7787 H       1  UNL1        0.0266
     39 H           6.4830    2.6431    0.3623 H       1  UNL1        0.0266
     40 H           6.3834    0.7140   -0.8713 H       1  UNL1        0.0266
     41 H           6.8570   -0.1844    0.5201 H       1  UNL1        0.0266
     42 H          -0.0089   -0.0399    1.6640 H       1  UNL1        0.0326
     43 H          -0.7025    0.0887    0.0539 H       1  UNL1        0.0326
     44 H           3.2463    0.5437   -2.0149 H       1  UNL1        0.0560
     45 H           2.8212    2.1815   -2.5004 H       1  UNL1        0.0560
     46 H           0.3788    2.3813    1.6638 H       1  UNL1        0.0814
     47 H          -0.3422    2.4885    0.0726 H       1  UNL1        0.0814
     48 H           3.3166   -1.2850    1.1204 H       1  UNL1        0.0636
     49 H           3.6368   -3.6573    0.6439 H       1  UNL1        0.0619
     50 H           0.3649   -3.5059   -1.9329 H       1  UNL1        0.0829
     51 H          -2.4366    0.4235    0.5721 H       1  UNL1        0.0873
     52 H          -2.6739    1.9974   -0.1901 H       1  UNL1        0.0873
     53 H           2.1285   -4.7787   -0.9131 H       1  UNL1        0.0633
     54 H          -6.4298    1.0293    3.5594 H       1  UNL1        0.0659
     55 H          -7.4076    2.3985    1.6689 H       1  UNL1        0.0694
     56 H          -2.1466   -0.9619    3.5558 H       1  UNL1        0.0660
     57 H          -2.0031    0.2084    2.2663 H       1  UNL1        0.0660
     58 H          -3.0718   -1.1624    2.0871 H       1  UNL1        0.0660
@<TRIPOS>UNITY_ATOM_ATTR
5 1
charge 1
@<TRIPOS>BOND
     1     1    23   ar
     2     1    26   ar
     3     2     6    1
     4     2    15    1
     5     3    24    1
     6     3    27    1
     7     4    16   ar
     8     4    20   ar
     9     5    17    1
    10     5    21    1
    11     5    28    1
    12     5    29    1
    13     6     8    1
    14     6     9    1
    15     6    10    1
    16     7     8    1
    17     7    11    1
    18     7    14    1
    19     7    16    1
    20     8    30    1
    21     8    31    1
    22     9    12    1
    23     9    32    1
    24     9    33    1
    25    10    13    1
    26    10    34    1
    27    10    35    1
    28    11    15    1
    29    11    36    1
    30    11    37    1
    31    12    13    1
    32    12    38    1
    33    12    39    1
    34    13    40    1
    35    13    41    1
    36    14    17    1
    37    14    42    1
    38    14    43    1
    39    15    44    1
    40    15    45    1
    41    16    18   ar
    42    17    46    1
    43    17    47    1
    44    18    19   ar
    45    18    48    1
    46    19    22   ar
    47    19    49    1
    48    20    22   ar
    49    20    50    1
    50    21    23    1
    51    21    51    1
    52    21    52    1
    53    22    53    1
    54    23    24   ar
    55    24    25   ar
    56    25    26   ar
    57    25    54    1
    58    26    55    1
    59    27    56    1
    60    27    57    1
    61    27    58    1
@<TRIPOS>MOLECULE
66555030
 58 61 0 0 0
SMALL
GASTEIGER

@<TRIPOS>ATOM
      1 S          -5.2723    2.4042    0.4804 S.2     1  UNL1       -0.0926
      2 O           3.7389    2.0185   -0.6934 O.3     1  UNL1       -0.3733
      3 O          -3.7466    0.3123    3.3503 O.3     1  UNL1       -0.4941
      4 N           0.7973   -1.7152   -1.0334 N.ar    1  UNL1       -0.2593
      5 N          -1.6674    2.0414    1.6033 N.4     1  UNL1        0.2308
      6 C           3.8512    1.2252    0.4942 C.3     1  UNL1        0.0704
      7 C           1.4231    0.3747    0.1125 C.3     1  UNL1        0.0224
      8 C           2.4643    0.9676    1.1076 C.3     1  UNL1       -0.0124
      9 C           4.7367    2.0144    1.4725 C.3     1  UNL1       -0.0237
     10 C           4.7153   -0.0215    0.2655 C.3     1  UNL1       -0.0237
     11 C           1.4573    1.2951   -1.1383 C.3     1  UNL1       -0.0181
     12 C           6.1616    1.8150    0.9589 C.3     1  UNL1       -0.0504
     13 C           6.1397    0.5192    0.1522 C.3     1  UNL1       -0.0504
     14 C           0.0115    0.4968    0.7385 C.3     1  UNL1       -0.0013
     15 C           2.8671    1.4887   -1.6863 C.3     1  UNL1        0.0492
     16 C           1.6501   -1.1244   -0.1669 C.ar    1  UNL1        0.0478
     17 C          -0.3430    1.9539    0.9995 C.3     1  UNL1       -0.0325
     18 C           2.6925   -1.7823    0.4660 C.ar    1  UNL1       -0.0398
     19 C           2.8712   -3.1336    0.1916 C.ar    1  UNL1       -0.0586
     20 C           1.0020   -3.0297   -1.2753 C.ar    1  UNL1        0.0279
     21 C          -2.6752    1.4543    0.7318 C.3     1  UNL1        0.0021
     22 C           2.0142   -3.7766   -0.6946 C.ar    1  UNL1       -0.0436
     23 C          -4.0548    1.5483    1.3273 C.ar    1  UNL1        0.0756
     24 C          -4.5208    1.0251    2.5135 C.ar    1  UNL1        0.1353
     25 C          -5.8955    1.3308    2.7295 C.ar    1  UNL1       -0.0124
     26 C          -6.4278    2.0760    1.7006 C.ar    1  UNL1       -0.0203
     27 C          -4.0433    0.3804    4.7521 C.3     1  UNL1        0.0788
     28 H          -1.8964    3.0220    1.7656 H       1  UNL1        0.2017
     29 H          -1.6586    1.5273    2.4842 H       1  UNL1        0.2017
     30 H           2.0834    1.8968    1.4769 H       1  UNL1        0.0302
     31 H           2.6010    0.2383    1.8785 H       1  UNL1        0.0302
     32 H           4.6369    1.6291    2.4657 H       1  UNL1        0.0293
     33 H           4.4653    3.0484    1.5180 H       1  UNL1        0.0293
     34 H           4.4274   -0.5217   -0.6355 H       1  UNL1        0.0293
     35 H           4.6127   -0.7389    1.0527 H       1  UNL1        0.0293
     36 H           1.0594    2.2516   -0.8707 H       1  UNL1        0.0296
     37 H           0.8746    0.8247   -1.9025 H       1  UNL1        0.0296
     38 H           6.8441    1.7313    1.7787 H       1  UNL1        0.0266
     39 H           6.4830    2.6431    0.3623 H       1  UNL1        0.0266
     40 H           6.3834    0.7140   -0.8713 H       1  UNL1        0.0266
     41 H           6.8570   -0.1844    0.5201 H       1  UNL1        0.0266
     42 H          -0.0089   -0.0399    1.6640 H       1  UNL1        0.0326
     43 H          -0.7025    0.0887    0.0539 H       1  UNL1        0.0326
     44 H           3.2463    0.5437   -2.0149 H       1  UNL1        0.0560
     45 H           2.8212    2.1815   -2.5004 H       1  UNL1        0.0560
     46 H           0.3788    2.3813    1.6638 H       1  UNL1        0.0814
     47 H          -0.3422    2.4885    0.0726 H       1  UNL1        0.0814
     48 H           3.3166   -1.2850    1.1204 H       1  UNL1        0.0636
     49 H           3.6368   -3.6573    0.6439 H       1  UNL1        0.0619
     50 H           0.3649   -3.5059   -1.9329 H       1  UNL1        0.0829
     51 H          -2.4366    0.4235    0.5721 H       1  UNL1        0.0873
     52 H          -2.6739    1.9974   -0.1901 H       1  UNL1        0.0873
     53 H           2.1285   -4.7787   -0.9131 H       1  UNL1        0.0633
     54 H          -6.4298    1.0293    3.5594 H       1  UNL1        0.0659
     55 H          -7.4076    2.3985    1.6689 H       1  UNL1        0.0694
     56 H          -3.3521   -0.2315    5.2931 H       1  UNL1        0.0660
     57 H          -5.0397    0.0299    4.9232 H       1  UNL1        0.0660
     58 H          -3.9595    1.3937    5.0856 H       1  UNL1        0.0660
@<TRIPOS>UNITY_ATOM_ATTR
5 1
charge 1
@<TRIPOS>BOND
     1     1    23   ar
     2     1    26   ar
     3     2     6    1
     4     2    15    1
     5     3    24    1
     6     3    27    1
     7     4    16   ar
     8     4    20   ar
     9     5    17    1
    10     5    21    1
    11     5    28    1
    12     5    29    1
    13     6     8    1
    14     6     9    1
    15     6    10    1
    16     7     8    1
    17     7    11    1
    18     7    14    1
    19     7    16    1
    20     8    30    1
    21     8    31    1
    22     9    12    1
    23     9    32    1
    24     9    33    1
    25    10    13    1
    26    10    34    1
    27    10    35    1
    28    11    15    1
    29    11    36    1
    30    11    37    1
    31    12    13    1
    32    12    38    1
    33    12    39    1
    34    13    40    1
    35    13    41    1
    36    14    17    1
    37    14    42    1
    38    14    43    1
    39    15    44    1
    40    15    45    1
    41    16    18   ar
    42    17    46    1
    43    17    47    1
    44    18    19   ar
    45    18    48    1
    46    19    22   ar
    47    19    49    1
    48    20    22   ar
    49    20    50    1
    50    21    23    1
    51    21    51    1
    52    21    52    1
    53    22    53    1
    54    23    24   ar
    55    24    25   ar
    56    25    26   ar
    57    25    54    1
    58    26    55    1
    59    27    56    1
    60    27    57    1
    61    27    58    1
@<TRIPOS>MOLECULE
66555030
 58 61 0 0 0
SMALL
GASTEIGER

@<TRIPOS>ATOM
      1 S          -2.1091   -3.2636    2.7206 S.2     1  UNL1       -0.0926
      2 O           3.7389    2.0185   -0.6934 O.3     1  UNL1       -0.3733
      3 O           0.6912   -2.4646    5.2622 O.3     1  UNL1       -0.4941
      4 N           1.5734   -1.9572    0.8951 N.ar    1  UNL1       -0.2593
      5 N          -1.4031   -0.1338    2.6236 N.4     1  UNL1        0.2308
      6 C           3.8512    1.2252    0.4942 C.3     1  UNL1        0.0704
      7 C           1.4231    0.3747    0.1125 C.3     1  UNL1        0.0224
      8 C           2.4643    0.9676    1.1076 C.3     1  UNL1       -0.0124
      9 C           4.7367    2.0144    1.4725 C.3     1  UNL1       -0.0237
     10 C           4.7153   -0.0215    0.2655 C.3     1  UNL1       -0.0237
     11 C           1.4573    1.2951   -1.1383 C.3     1  UNL1       -0.0181
     12 C           6.1616    1.8150    0.9589 C.3     1  UNL1       -0.0504
     13 C           6.1397    0.5192    0.1522 C.3     1  UNL1       -0.0504
     14 C           0.0115    0.4968    0.7385 C.3     1  UNL1       -0.0013
     15 C           2.8671    1.4887   -1.6863 C.3     1  UNL1        0.0492
     16 C           1.6501   -1.1244   -0.1669 C.ar    1  UNL1        0.0478
     17 C          -0.0619   -0.2494    2.0632 C.3     1  UNL1       -0.0325
     18 C           1.9150   -1.5407   -1.4617 C.ar    1  UNL1       -0.0398
     19 C           2.1137   -2.8994   -1.6805 C.ar    1  UNL1       -0.0586
     20 C           1.7723   -3.2707    0.6437 C.ar    1  UNL1        0.0279
     21 C          -1.4936   -0.8268    3.9010 C.3     1  UNL1        0.0021
     22 C           2.0424   -3.7875   -0.6130 C.ar    1  UNL1       -0.0436
     23 C          -1.1676   -2.2907    3.7689 C.ar    1  UNL1        0.0756
     24 C          -0.1751   -3.0140    4.3932 C.ar    1  UNL1        0.1353
     25 C          -0.1878   -4.3849    4.0052 C.ar    1  UNL1       -0.0124
     26 C          -1.1893   -4.6572    3.0996 C.ar    1  UNL1       -0.0203
     27 C           0.2406   -1.3398    6.0300 C.3     1  UNL1        0.0788
     28 H          -2.0733   -0.5436    1.9730 H       1  UNL1        0.2017
     29 H          -1.6099    0.8537    2.7730 H       1  UNL1        0.2017
     30 H           2.0834    1.8968    1.4769 H       1  UNL1        0.0302
     31 H           2.6010    0.2383    1.8785 H       1  UNL1        0.0302
     32 H           4.6369    1.6291    2.4657 H       1  UNL1        0.0293
     33 H           4.4653    3.0484    1.5180 H       1  UNL1        0.0293
     34 H           4.4274   -0.5217   -0.6355 H       1  UNL1        0.0293
     35 H           4.6127   -0.7389    1.0527 H       1  UNL1        0.0293
     36 H           1.0594    2.2516   -0.8707 H       1  UNL1        0.0296
     37 H           0.8746    0.8247   -1.9025 H       1  UNL1        0.0296
     38 H           6.8441    1.7313    1.7787 H       1  UNL1        0.0266
     39 H           6.4830    2.6431    0.3623 H       1  UNL1        0.0266
     40 H           6.3834    0.7140   -0.8713 H       1  UNL1        0.0266
     41 H           6.8570   -0.1844    0.5201 H       1  UNL1        0.0266
     42 H          -0.7081    0.0833    0.0632 H       1  UNL1        0.0326
     43 H          -0.1948    1.5314    0.9172 H       1  UNL1        0.0326
     44 H           3.2463    0.5437   -2.0149 H       1  UNL1        0.0560
     45 H           2.8212    2.1815   -2.5004 H       1  UNL1        0.0560
     46 H           0.1675   -1.2821    1.9020 H       1  UNL1        0.0814
     47 H           0.6435    0.1751    2.7466 H       1  UNL1        0.0814
     48 H           1.9632   -0.8638   -2.2391 H       1  UNL1        0.0636
     49 H           2.3131   -3.2473   -2.6314 H       1  UNL1        0.0619
     50 H           1.7197   -3.9288    1.4369 H       1  UNL1        0.0829
     51 H          -2.4896   -0.7267    4.2791 H       1  UNL1        0.0873
     52 H          -0.7821   -0.3871    4.5683 H       1  UNL1        0.0873
     53 H           2.1863   -4.7999   -0.7525 H       1  UNL1        0.0633
     54 H           0.4755   -5.0910    4.3609 H       1  UNL1        0.0659
     55 H          -1.3647   -5.5911    2.6971 H       1  UNL1        0.0694
     56 H           1.0284   -1.0090    6.6741 H       1  UNL1        0.0660
     57 H          -0.6055   -1.6260    6.6191 H       1  UNL1        0.0660
     58 H          -0.0372   -0.5453    5.3692 H       1  UNL1        0.0660
@<TRIPOS>UNITY_ATOM_ATTR
5 1
charge 1
@<TRIPOS>BOND
     1     1    23   ar
     2     1    26   ar
     3     2     6    1
     4     2    15    1
     5     3    24    1
     6     3    27    1
     7     4    16   ar
     8     4    20   ar
     9     5    17    1
    10     5    21    1
    11     5    28    1
    12     5    29    1
    13     6     8    1
    14     6     9    1
    15     6    10    1
    16     7     8    1
    17     7    11    1
    18     7    14    1
    19     7    16    1
    20     8    30    1
    21     8    31    1
    22     9    12    1
    23     9    32    1
    24     9    33    1
    25    10    13    1
    26    10    34    1
    27    10    35    1
    28    11    15    1
    29    11    36    1
    30    11    37    1
    31    12    13    1
    32    12    38    1
    33    12    39    1
    34    13    40    1
    35    13    41    1
    36    14    17    1
    37    14    42    1
    38    14    43    1
    39    15    44    1
    40    15    45    1
    41    16    18   ar
    42    17    46    1
    43    17    47    1
    44    18    19   ar
    45    18    48    1
    46    19    22   ar
    47    19    49    1
    48    20    22   ar
    49    20    50    1
    50    21    23    1
    51    21    51    1
    52    21    52    1
    53    22    53    1
    54    23    24   ar
    55    24    25   ar
    56    25    26   ar
    57    25    54    1
    58    26    55    1
    59    27    56    1
    60    27    57    1
    61    27    58    1
