@<TRIPOS>MOLECULE
66553195
 58 61 0 0 0
SMALL
GASTEIGER

@<TRIPOS>ATOM
      1 S          -2.2483   -3.6837   -3.4305 S.2     1  UNL1       -0.0926
      2 O           3.9947    1.8338   -0.6210 O.3     1  UNL1       -0.3733
      3 O          -1.0919   -3.7498    0.2572 O.3     1  UNL1       -0.4941
      4 N           2.3355   -1.4362   -1.2235 N.ar    1  UNL1       -0.2593
      5 N          -0.9367   -1.0864   -0.7122 N.4     1  UNL1        0.2308
      6 C           3.9072    1.0510    0.5757 C.3     1  UNL1        0.0704
      7 C           1.4313    0.5057   -0.0051 C.3     1  UNL1        0.0224
      8 C           2.4527    0.9788    1.0713 C.3     1  UNL1       -0.0124
      9 C           4.8008    1.7382    1.6213 C.3     1  UNL1       -0.0237
     10 C           4.6231   -0.2974    0.4268 C.3     1  UNL1       -0.0237
     11 C           1.6850    1.3950   -1.2530 C.3     1  UNL1       -0.0181
     12 C           6.2268    1.3540    1.2306 C.3     1  UNL1       -0.0504
     13 C           6.1087    0.0588    0.4313 C.3     1  UNL1       -0.0504
     14 C          -0.0007    0.8133    0.4991 C.3     1  UNL1       -0.0013
     15 C           3.1485    1.4020   -1.6812 C.3     1  UNL1        0.0492
     16 C           1.4898   -1.0143   -0.2569 C.ar    1  UNL1        0.0478
     17 C          -1.0428    0.3538   -0.5107 C.3     1  UNL1       -0.0325
     18 C           0.6938   -1.8586    0.5002 C.ar    1  UNL1       -0.0398
     19 C           0.7710   -3.2240    0.2494 C.ar    1  UNL1       -0.0586
     20 C           2.3834   -2.7700   -1.4391 C.ar    1  UNL1        0.0279
     21 C          -1.9140   -1.5477   -1.6880 C.3     1  UNL1        0.0021
     22 C           1.6295   -3.6966   -0.7370 C.ar    1  UNL1       -0.0436
     23 C          -1.8347   -3.0362   -1.9002 C.ar    1  UNL1        0.0756
     24 C          -1.4606   -4.0169   -1.0079 C.ar    1  UNL1        0.1353
     25 C          -1.5142   -5.3169   -1.5884 C.ar    1  UNL1       -0.0124
     26 C          -1.9271   -5.2805   -2.9022 C.ar    1  UNL1       -0.0203
     27 C          -1.3580   -4.7479    1.2526 C.3     1  UNL1        0.0788
     28 H          -1.1015   -1.5609    0.1756 H       1  UNL1        0.2017
     29 H          -0.0021   -1.2987   -1.0614 H       1  UNL1        0.2017
     30 H           2.1628    1.9541    1.4025 H       1  UNL1        0.0302
     31 H           2.4318    0.2502    1.8546 H       1  UNL1        0.0302
     32 H           4.5711    1.3839    2.6045 H       1  UNL1        0.0293
     33 H           4.6591    2.7986    1.6388 H       1  UNL1        0.0293
     34 H           4.3502   -0.7715   -0.4928 H       1  UNL1        0.0293
     35 H           4.3659   -0.9840    1.2061 H       1  UNL1        0.0293
     36 H           1.3901    2.3979   -1.0246 H       1  UNL1        0.0296
     37 H           1.1131    0.9894   -2.0613 H       1  UNL1        0.0296
     38 H           6.8229    1.1982    2.1054 H       1  UNL1        0.0266
     39 H           6.6984    2.1260    0.6592 H       1  UNL1        0.0266
     40 H           6.4591    0.2056   -0.5690 H       1  UNL1        0.0266
     41 H           6.6986   -0.7233    0.8618 H       1  UNL1        0.0266
     42 H          -0.1000    1.8680    0.6496 H       1  UNL1        0.0326
     43 H          -0.1599    0.2879    1.4175 H       1  UNL1        0.0326
     44 H           3.4315    0.4119   -1.9720 H       1  UNL1        0.0560
     45 H           3.2580    2.0824   -2.4997 H       1  UNL1        0.0560
     46 H          -2.0202    0.5898   -0.1445 H       1  UNL1        0.0814
     47 H          -0.8755    0.8533   -1.4421 H       1  UNL1        0.0814
     48 H           0.0635   -1.4858    1.2275 H       1  UNL1        0.0636
     49 H           0.1934   -3.8841    0.7931 H       1  UNL1        0.0619
     50 H           3.0208   -3.1195   -2.1716 H       1  UNL1        0.0829
     51 H          -1.7315   -1.0550   -2.6201 H       1  UNL1        0.0873
     52 H          -2.8899   -1.3171   -1.3148 H       1  UNL1        0.0873
     53 H           1.7029   -4.7058   -0.9398 H       1  UNL1        0.0633
     54 H          -1.2721   -6.1841   -1.0839 H       1  UNL1        0.0659
     55 H          -2.0306   -6.1169   -3.4977 H       1  UNL1        0.0694
     56 H          -1.0139   -4.4023    2.2051 H       1  UNL1        0.0660
     57 H          -0.8477   -5.6527    0.9958 H       1  UNL1        0.0660
     58 H          -2.4108   -4.9332    1.2995 H       1  UNL1        0.0660
@<TRIPOS>UNITY_ATOM_ATTR
5 1
charge 1
@<TRIPOS>BOND
     1     1    23   ar
     2     1    26   ar
     3     2     6    1
     4     2    15    1
     5     3    24    1
     6     3    27    1
     7     4    16   ar
     8     4    20   ar
     9     5    17    1
    10     5    21    1
    11     5    28    1
    12     5    29    1
    13     6     8    1
    14     6     9    1
    15     6    10    1
    16     7     8    1
    17     7    11    1
    18     7    14    1
    19     7    16    1
    20     8    30    1
    21     8    31    1
    22     9    12    1
    23     9    32    1
    24     9    33    1
    25    10    13    1
    26    10    34    1
    27    10    35    1
    28    11    15    1
    29    11    36    1
    30    11    37    1
    31    12    13    1
    32    12    38    1
    33    12    39    1
    34    13    40    1
    35    13    41    1
    36    14    17    1
    37    14    42    1
    38    14    43    1
    39    15    44    1
    40    15    45    1
    41    16    18   ar
    42    17    46    1
    43    17    47    1
    44    18    19   ar
    45    18    48    1
    46    19    22   ar
    47    19    49    1
    48    20    22   ar
    49    20    50    1
    50    21    23    1
    51    21    51    1
    52    21    52    1
    53    22    53    1
    54    23    24   ar
    55    24    25   ar
    56    25    26   ar
    57    25    54    1
    58    26    55    1
    59    27    56    1
    60    27    57    1
    61    27    58    1
@<TRIPOS>MOLECULE
66553195
 58 61 0 0 0
SMALL
GASTEIGER

@<TRIPOS>ATOM
      1 S          -4.5021    1.8236   -2.9459 S.2     1  UNL1       -0.0926
      2 O           3.9947    1.8338   -0.6210 O.3     1  UNL1       -0.3733
      3 O          -1.0347    0.1164   -2.8933 O.3     1  UNL1       -0.4941
      4 N           1.8670   -1.7871    0.7861 N.ar    1  UNL1       -0.2593
      5 N          -2.3798    0.6689   -0.0216 N.4     1  UNL1        0.2308
      6 C           3.9072    1.0510    0.5757 C.3     1  UNL1        0.0704
      7 C           1.4313    0.5057   -0.0051 C.3     1  UNL1        0.0224
      8 C           2.4527    0.9788    1.0713 C.3     1  UNL1       -0.0124
      9 C           4.8008    1.7382    1.6213 C.3     1  UNL1       -0.0237
     10 C           4.6231   -0.2974    0.4268 C.3     1  UNL1       -0.0237
     11 C           1.6850    1.3950   -1.2530 C.3     1  UNL1       -0.0181
     12 C           6.2268    1.3540    1.2306 C.3     1  UNL1       -0.0504
     13 C           6.1087    0.0588    0.4313 C.3     1  UNL1       -0.0504
     14 C          -0.0007    0.8133    0.4991 C.3     1  UNL1       -0.0013
     15 C           3.1485    1.4020   -1.6812 C.3     1  UNL1        0.0492
     16 C           1.4898   -1.0143   -0.2569 C.ar    1  UNL1        0.0478
     17 C          -1.0428    0.3538   -0.5107 C.3     1  UNL1       -0.0325
     18 C           1.1606   -1.5078   -1.5090 C.ar    1  UNL1       -0.0398
     19 C           1.2221   -2.8832   -1.7031 C.ar    1  UNL1       -0.0586
     20 C           1.9154   -3.1192    0.5598 C.ar    1  UNL1        0.0279
     21 C          -3.3961    0.2233   -0.9644 C.3     1  UNL1        0.0021
     22 C           1.6058   -3.7112   -0.6540 C.ar    1  UNL1       -0.0436
     23 C          -3.2292    0.8678   -2.3149 C.ar    1  UNL1        0.0756
     24 C          -2.1532    0.8079   -3.1731 C.ar    1  UNL1        0.1353
     25 C          -2.3771    1.5567   -4.3644 C.ar    1  UNL1       -0.0124
     26 C          -3.6153    2.1603   -4.3714 C.ar    1  UNL1       -0.0203
     27 C           0.2015    0.6032   -3.4347 C.3     1  UNL1        0.0788
     28 H          -2.4602    1.6780    0.1040 H       1  UNL1        0.2017
     29 H          -2.5244    0.1869    0.8656 H       1  UNL1        0.2017
     30 H           2.1628    1.9541    1.4025 H       1  UNL1        0.0302
     31 H           2.4318    0.2502    1.8546 H       1  UNL1        0.0302
     32 H           4.5711    1.3839    2.6045 H       1  UNL1        0.0293
     33 H           4.6591    2.7986    1.6388 H       1  UNL1        0.0293
     34 H           4.3502   -0.7715   -0.4928 H       1  UNL1        0.0293
     35 H           4.3659   -0.9840    1.2061 H       1  UNL1        0.0293
     36 H           1.3901    2.3979   -1.0246 H       1  UNL1        0.0296
     37 H           1.1131    0.9894   -2.0613 H       1  UNL1        0.0296
     38 H           6.8229    1.1982    2.1054 H       1  UNL1        0.0266
     39 H           6.6984    2.1260    0.6592 H       1  UNL1        0.0266
     40 H           6.4591    0.2056   -0.5690 H       1  UNL1        0.0266
     41 H           6.6986   -0.7233    0.8618 H       1  UNL1        0.0266
     42 H          -0.1000    1.8680    0.6496 H       1  UNL1        0.0326
     43 H          -0.1599    0.2879    1.4175 H       1  UNL1        0.0326
     44 H           3.4315    0.4119   -1.9720 H       1  UNL1        0.0560
     45 H           3.2580    2.0824   -2.4997 H       1  UNL1        0.0560
     46 H          -0.8788    0.8537   -1.4425 H       1  UNL1        0.0814
     47 H          -0.9581   -0.7040   -0.6482 H       1  UNL1        0.0814
     48 H           0.8785   -0.8745   -2.2735 H       1  UNL1        0.0636
     49 H           0.9841   -3.2879   -2.6221 H       1  UNL1        0.0619
     50 H           2.2005   -3.7327    1.3391 H       1  UNL1        0.0829
     51 H          -4.3613    0.4754   -0.5775 H       1  UNL1        0.0873
     52 H          -3.2942   -0.8348   -1.0867 H       1  UNL1        0.0873
     53 H           1.6582   -4.7347   -0.7756 H       1  UNL1        0.0633
     54 H          -1.6919    1.6373   -5.1321 H       1  UNL1        0.0659
     55 H          -3.9670    2.7464   -5.1446 H       1  UNL1        0.0694
     56 H           1.0010   -0.0407   -3.1331 H       1  UNL1        0.0660
     57 H           0.3844    1.5932   -3.0721 H       1  UNL1        0.0660
     58 H           0.1409    0.6202   -4.5029 H       1  UNL1        0.0660
@<TRIPOS>UNITY_ATOM_ATTR
5 1
charge 1
@<TRIPOS>BOND
     1     1    23   ar
     2     1    26   ar
     3     2     6    1
     4     2    15    1
     5     3    24    1
     6     3    27    1
     7     4    16   ar
     8     4    20   ar
     9     5    17    1
    10     5    21    1
    11     5    28    1
    12     5    29    1
    13     6     8    1
    14     6     9    1
    15     6    10    1
    16     7     8    1
    17     7    11    1
    18     7    14    1
    19     7    16    1
    20     8    30    1
    21     8    31    1
    22     9    12    1
    23     9    32    1
    24     9    33    1
    25    10    13    1
    26    10    34    1
    27    10    35    1
    28    11    15    1
    29    11    36    1
    30    11    37    1
    31    12    13    1
    32    12    38    1
    33    12    39    1
    34    13    40    1
    35    13    41    1
    36    14    17    1
    37    14    42    1
    38    14    43    1
    39    15    44    1
    40    15    45    1
    41    16    18   ar
    42    17    46    1
    43    17    47    1
    44    18    19   ar
    45    18    48    1
    46    19    22   ar
    47    19    49    1
    48    20    22   ar
    49    20    50    1
    50    21    23    1
    51    21    51    1
    52    21    52    1
    53    22    53    1
    54    23    24   ar
    55    24    25   ar
    56    25    26   ar
    57    25    54    1
    58    26    55    1
    59    27    56    1
    60    27    57    1
    61    27    58    1
@<TRIPOS>MOLECULE
66553195
 58 61 0 0 0
SMALL
GASTEIGER

@<TRIPOS>ATOM
      1 S          -3.2045   -0.0865    0.4653 S.2     1  UNL1       -0.0926
      2 O           3.9947    1.8338   -0.6210 O.3     1  UNL1       -0.3733
      3 O          -3.0289   -3.5201    2.2317 O.3     1  UNL1       -0.4941
      4 N           0.6441   -1.5069   -1.1894 N.ar    1  UNL1       -0.2593
      5 N          -0.1319   -1.3376    1.6429 N.4     1  UNL1        0.2308
      6 C           3.9072    1.0510    0.5757 C.3     1  UNL1        0.0704
      7 C           1.4313    0.5057   -0.0051 C.3     1  UNL1        0.0224
      8 C           2.4527    0.9788    1.0713 C.3     1  UNL1       -0.0124
      9 C           4.8008    1.7382    1.6213 C.3     1  UNL1       -0.0237
     10 C           4.6231   -0.2974    0.4268 C.3     1  UNL1       -0.0237
     11 C           1.6850    1.3950   -1.2530 C.3     1  UNL1       -0.0181
     12 C           6.2268    1.3540    1.2306 C.3     1  UNL1       -0.0504
     13 C           6.1087    0.0588    0.4313 C.3     1  UNL1       -0.0504
     14 C          -0.0007    0.8133    0.4991 C.3     1  UNL1       -0.0013
     15 C           3.1485    1.4020   -1.6812 C.3     1  UNL1        0.0492
     16 C           1.4898   -1.0143   -0.2569 C.ar    1  UNL1        0.0478
     17 C          -0.2774    0.1027    1.8165 C.3     1  UNL1       -0.0325
     18 C           2.3845   -1.7877    0.4649 C.ar    1  UNL1       -0.0398
     19 C           2.4134   -3.1548    0.2132 C.ar    1  UNL1       -0.0586
     20 C           0.7007   -2.8401   -1.4068 C.ar    1  UNL1        0.0279
     21 C          -1.0532   -1.8344    0.6306 C.3     1  UNL1        0.0021
     22 C           1.5587   -3.6989   -0.7390 C.ar    1  UNL1       -0.0436
     23 C          -2.4874   -1.5502    0.9901 C.ar    1  UNL1        0.0756
     24 C          -3.3656   -2.3251    1.7155 C.ar    1  UNL1        0.1353
     25 C          -4.6439   -1.7089    1.8420 C.ar    1  UNL1       -0.0124
     26 C          -4.6942   -0.4866    1.2086 C.ar    1  UNL1       -0.0203
     27 C          -1.6919   -3.9890    2.0071 C.3     1  UNL1        0.0788
     28 H          -0.3276   -1.8024    2.5295 H       1  UNL1        0.2017
     29 H           0.8221   -1.5348    1.3403 H       1  UNL1        0.2017
     30 H           2.1628    1.9541    1.4025 H       1  UNL1        0.0302
     31 H           2.4318    0.2502    1.8546 H       1  UNL1        0.0302
     32 H           4.5711    1.3839    2.6045 H       1  UNL1        0.0293
     33 H           4.6591    2.7986    1.6388 H       1  UNL1        0.0293
     34 H           4.3502   -0.7715   -0.4928 H       1  UNL1        0.0293
     35 H           4.3659   -0.9840    1.2061 H       1  UNL1        0.0293
     36 H           1.3901    2.3979   -1.0246 H       1  UNL1        0.0296
     37 H           1.1131    0.9894   -2.0613 H       1  UNL1        0.0296
     38 H           6.8229    1.1982    2.1054 H       1  UNL1        0.0266
     39 H           6.6984    2.1260    0.6592 H       1  UNL1        0.0266
     40 H           6.4591    0.2056   -0.5690 H       1  UNL1        0.0266
     41 H           6.6986   -0.7233    0.8618 H       1  UNL1        0.0266
     42 H          -0.7081    0.4828   -0.2325 H       1  UNL1        0.0326
     43 H          -0.0890    1.8682    0.6548 H       1  UNL1        0.0326
     44 H           3.4315    0.4119   -1.9720 H       1  UNL1        0.0560
     45 H           3.2580    2.0824   -2.4997 H       1  UNL1        0.0560
     46 H           0.4171    0.4430    2.5560 H       1  UNL1        0.0814
     47 H          -1.2765    0.3206    2.1315 H       1  UNL1        0.0814
     48 H           3.0098   -1.3625    1.1673 H       1  UNL1        0.0636
     49 H           3.0665   -3.7633    0.7311 H       1  UNL1        0.0619
     50 H           0.0657   -3.2429   -2.1136 H       1  UNL1        0.0829
     51 H          -0.9237   -2.8922    0.5340 H       1  UNL1        0.0873
     52 H          -0.8362   -1.3339   -0.2899 H       1  UNL1        0.0873
     53 H           1.5633   -4.7108   -0.9420 H       1  UNL1        0.0633
     54 H          -5.4389   -2.1289    2.3488 H       1  UNL1        0.0659
     55 H          -5.5311    0.1167    1.1847 H       1  UNL1        0.0694
     56 H          -1.5666   -4.9450    2.4711 H       1  UNL1        0.0660
     57 H          -0.9949   -3.2944    2.4274 H       1  UNL1        0.0660
     58 H          -1.5169   -4.0775    0.9552 H       1  UNL1        0.0660
@<TRIPOS>UNITY_ATOM_ATTR
5 1
charge 1
@<TRIPOS>BOND
     1     1    23   ar
     2     1    26   ar
     3     2     6    1
     4     2    15    1
     5     3    24    1
     6     3    27    1
     7     4    16   ar
     8     4    20   ar
     9     5    17    1
    10     5    21    1
    11     5    28    1
    12     5    29    1
    13     6     8    1
    14     6     9    1
    15     6    10    1
    16     7     8    1
    17     7    11    1
    18     7    14    1
    19     7    16    1
    20     8    30    1
    21     8    31    1
    22     9    12    1
    23     9    32    1
    24     9    33    1
    25    10    13    1
    26    10    34    1
    27    10    35    1
    28    11    15    1
    29    11    36    1
    30    11    37    1
    31    12    13    1
    32    12    38    1
    33    12    39    1
    34    13    40    1
    35    13    41    1
    36    14    17    1
    37    14    42    1
    38    14    43    1
    39    15    44    1
    40    15    45    1
    41    16    18   ar
    42    17    46    1
    43    17    47    1
    44    18    19   ar
    45    18    48    1
    46    19    22   ar
    47    19    49    1
    48    20    22   ar
    49    20    50    1
    50    21    23    1
    51    21    51    1
    52    21    52    1
    53    22    53    1
    54    23    24   ar
    55    24    25   ar
    56    25    26   ar
    57    25    54    1
    58    26    55    1
    59    27    56    1
    60    27    57    1
    61    27    58    1
@<TRIPOS>MOLECULE
66553195
 58 61 0 0 0
SMALL
GASTEIGER

@<TRIPOS>ATOM
      1 S          -1.0461    0.6750   -3.1082 S.2     1  UNL1       -0.0926
      2 O           3.9947    1.8338   -0.6210 O.3     1  UNL1       -0.3733
      3 O          -2.5241   -2.6239   -4.4769 O.3     1  UNL1       -0.4941
      4 N           1.7905   -1.4089   -1.5144 N.ar    1  UNL1       -0.2593
      5 N          -0.9367   -1.0864   -0.7122 N.4     1  UNL1        0.2308
      6 C           3.9072    1.0510    0.5757 C.3     1  UNL1        0.0704
      7 C           1.4313    0.5057   -0.0051 C.3     1  UNL1        0.0224
      8 C           2.4527    0.9788    1.0713 C.3     1  UNL1       -0.0124
      9 C           4.8008    1.7382    1.6213 C.3     1  UNL1       -0.0237
     10 C           4.6231   -0.2974    0.4268 C.3     1  UNL1       -0.0237
     11 C           1.6850    1.3950   -1.2530 C.3     1  UNL1       -0.0181
     12 C           6.2268    1.3540    1.2306 C.3     1  UNL1       -0.0504
     13 C           6.1087    0.0588    0.4313 C.3     1  UNL1       -0.0504
     14 C          -0.0007    0.8133    0.4991 C.3     1  UNL1       -0.0013
     15 C           3.1485    1.4020   -1.6812 C.3     1  UNL1        0.0492
     16 C           1.4898   -1.0143   -0.2569 C.ar    1  UNL1        0.0478
     17 C          -1.0428    0.3538   -0.5107 C.3     1  UNL1       -0.0325
     18 C           1.2388   -1.8858    0.7906 C.ar    1  UNL1       -0.0398
     19 C           1.3008   -3.2503    0.5309 C.ar    1  UNL1       -0.0586
     20 C           1.8415   -2.7429   -1.7290 C.ar    1  UNL1        0.0279
     21 C          -1.9140   -1.5477   -1.6880 C.3     1  UNL1        0.0021
     22 C           1.6073   -3.6952   -0.7503 C.ar    1  UNL1       -0.0436
     23 C          -1.7124   -0.9005   -3.0324 C.ar    1  UNL1        0.0756
     24 C          -1.9947   -1.4032   -4.2837 C.ar    1  UNL1        0.1353
     25 C          -1.6594   -0.4826   -5.3180 C.ar    1  UNL1       -0.0124
     26 C          -1.1336    0.6885   -4.8182 C.ar    1  UNL1       -0.0203
     27 C          -2.2211   -3.6410   -3.5116 C.3     1  UNL1        0.0788
     28 H          -1.1015   -1.5609    0.1756 H       1  UNL1        0.2017
     29 H          -0.0021   -1.2987   -1.0614 H       1  UNL1        0.2017
     30 H           2.1628    1.9541    1.4025 H       1  UNL1        0.0302
     31 H           2.4318    0.2502    1.8546 H       1  UNL1        0.0302
     32 H           4.5711    1.3839    2.6045 H       1  UNL1        0.0293
     33 H           4.6591    2.7986    1.6388 H       1  UNL1        0.0293
     34 H           4.3502   -0.7715   -0.4928 H       1  UNL1        0.0293
     35 H           4.3659   -0.9840    1.2061 H       1  UNL1        0.0293
     36 H           1.3901    2.3979   -1.0246 H       1  UNL1        0.0296
     37 H           1.1131    0.9894   -2.0613 H       1  UNL1        0.0296
     38 H           6.8229    1.1982    2.1054 H       1  UNL1        0.0266
     39 H           6.6984    2.1260    0.6592 H       1  UNL1        0.0266
     40 H           6.4591    0.2056   -0.5690 H       1  UNL1        0.0266
     41 H           6.6986   -0.7233    0.8618 H       1  UNL1        0.0266
     42 H          -0.1000    1.8680    0.6496 H       1  UNL1        0.0326
     43 H          -0.1599    0.2879    1.4175 H       1  UNL1        0.0326
     44 H           3.4315    0.4119   -1.9720 H       1  UNL1        0.0560
     45 H           3.2580    2.0824   -2.4997 H       1  UNL1        0.0560
     46 H          -2.0202    0.5898   -0.1445 H       1  UNL1        0.0814
     47 H          -0.8755    0.8533   -1.4421 H       1  UNL1        0.0814
     48 H           1.0130   -1.5332    1.7339 H       1  UNL1        0.0636
     49 H           1.1199   -3.9301    1.2859 H       1  UNL1        0.0619
     50 H           2.0688   -3.0719   -2.6803 H       1  UNL1        0.0829
     51 H          -2.8954   -1.3108   -1.3335 H       1  UNL1        0.0873
     52 H          -1.7917   -2.6041   -1.8064 H       1  UNL1        0.0873
     53 H           1.6588   -4.7032   -0.9654 H       1  UNL1        0.0633
     54 H          -1.7945   -0.6710   -6.3237 H       1  UNL1        0.0659
     55 H          -0.8284    1.4806   -5.4051 H       1  UNL1        0.0694
     56 H          -2.7057   -4.5532   -3.7907 H       1  UNL1        0.0660
     57 H          -2.5688   -3.3328   -2.5477 H       1  UNL1        0.0660
     58 H          -1.1629   -3.7955   -3.4764 H       1  UNL1        0.0660
@<TRIPOS>UNITY_ATOM_ATTR
5 1
charge 1
@<TRIPOS>BOND
     1     1    23   ar
     2     1    26   ar
     3     2     6    1
     4     2    15    1
     5     3    24    1
     6     3    27    1
     7     4    16   ar
     8     4    20   ar
     9     5    17    1
    10     5    21    1
    11     5    28    1
    12     5    29    1
    13     6     8    1
    14     6     9    1
    15     6    10    1
    16     7     8    1
    17     7    11    1
    18     7    14    1
    19     7    16    1
    20     8    30    1
    21     8    31    1
    22     9    12    1
    23     9    32    1
    24     9    33    1
    25    10    13    1
    26    10    34    1
    27    10    35    1
    28    11    15    1
    29    11    36    1
    30    11    37    1
    31    12    13    1
    32    12    38    1
    33    12    39    1
    34    13    40    1
    35    13    41    1
    36    14    17    1
    37    14    42    1
    38    14    43    1
    39    15    44    1
    40    15    45    1
    41    16    18   ar
    42    17    46    1
    43    17    47    1
    44    18    19   ar
    45    18    48    1
    46    19    22   ar
    47    19    49    1
    48    20    22   ar
    49    20    50    1
    50    21    23    1
    51    21    51    1
    52    21    52    1
    53    22    53    1
    54    23    24   ar
    55    24    25   ar
    56    25    26   ar
    57    25    54    1
    58    26    55    1
    59    27    56    1
    60    27    57    1
    61    27    58    1
@<TRIPOS>MOLECULE
66553195
 58 61 0 0 0
SMALL
GASTEIGER

@<TRIPOS>ATOM
      1 S          -1.3665    5.3004    3.8385 S.2     1  UNL1       -0.0926
      2 O           3.9947    1.8338   -0.6210 O.3     1  UNL1       -0.3733
      3 O           1.3009    4.0838    1.3196 O.3     1  UNL1       -0.4941
      4 N           1.8670   -1.7871    0.7861 N.ar    1  UNL1       -0.2593
      5 N          -1.5373    2.5691    1.2118 N.4     1  UNL1        0.2308
      6 C           3.9072    1.0510    0.5757 C.3     1  UNL1        0.0704
      7 C           1.4313    0.5057   -0.0051 C.3     1  UNL1        0.0224
      8 C           2.4527    0.9788    1.0713 C.3     1  UNL1       -0.0124
      9 C           4.8008    1.7382    1.6213 C.3     1  UNL1       -0.0237
     10 C           4.6231   -0.2974    0.4268 C.3     1  UNL1       -0.0237
     11 C           1.6850    1.3950   -1.2530 C.3     1  UNL1       -0.0181
     12 C           6.2268    1.3540    1.2306 C.3     1  UNL1       -0.0504
     13 C           6.1087    0.0588    0.4313 C.3     1  UNL1       -0.0504
     14 C          -0.0007    0.8133    0.4991 C.3     1  UNL1       -0.0013
     15 C           3.1485    1.4020   -1.6812 C.3     1  UNL1        0.0492
     16 C           1.4898   -1.0143   -0.2569 C.ar    1  UNL1        0.0478
     17 C          -0.1891    2.3072    0.7222 C.3     1  UNL1       -0.0325
     18 C           1.1606   -1.5078   -1.5090 C.ar    1  UNL1       -0.0398
     19 C           1.2221   -2.8832   -1.7031 C.ar    1  UNL1       -0.0586
     20 C           1.9154   -3.1192    0.5598 C.ar    1  UNL1        0.0279
     21 C          -1.7472    3.9952    1.4173 C.3     1  UNL1        0.0021
     22 C           1.6058   -3.7112   -0.6540 C.ar    1  UNL1       -0.0436
     23 C          -0.7708    4.5684    2.4098 C.ar    1  UNL1        0.0756
     24 C           0.6052    4.5991    2.3482 C.ar    1  UNL1        0.1353
     25 C           1.1776    5.2320    3.4891 C.ar    1  UNL1       -0.0124
     26 C           0.2177    5.6608    4.3792 C.ar    1  UNL1       -0.0203
     27 C           2.7321    4.1617    1.3789 C.3     1  UNL1        0.0788
     28 H          -1.6719    2.0807    2.0971 H       1  UNL1        0.2017
     29 H          -2.2066    2.2379    0.5170 H       1  UNL1        0.2017
     30 H           2.1628    1.9541    1.4025 H       1  UNL1        0.0302
     31 H           2.4318    0.2502    1.8546 H       1  UNL1        0.0302
     32 H           4.5711    1.3839    2.6045 H       1  UNL1        0.0293
     33 H           4.6591    2.7986    1.6388 H       1  UNL1        0.0293
     34 H           4.3502   -0.7715   -0.4928 H       1  UNL1        0.0293
     35 H           4.3659   -0.9840    1.2061 H       1  UNL1        0.0293
     36 H           1.3901    2.3979   -1.0246 H       1  UNL1        0.0296
     37 H           1.1131    0.9894   -2.0613 H       1  UNL1        0.0296
     38 H           6.8229    1.1982    2.1054 H       1  UNL1        0.0266
     39 H           6.6984    2.1260    0.6592 H       1  UNL1        0.0266
     40 H           6.4591    0.2056   -0.5690 H       1  UNL1        0.0266
     41 H           6.6986   -0.7233    0.8618 H       1  UNL1        0.0266
     42 H          -0.1653    0.2978    1.4221 H       1  UNL1        0.0326
     43 H          -0.7011    0.4874   -0.2413 H       1  UNL1        0.0326
     44 H           3.4315    0.4119   -1.9720 H       1  UNL1        0.0560
     45 H           3.2580    2.0824   -2.4997 H       1  UNL1        0.0560
     46 H           0.5232    2.6510    1.4429 H       1  UNL1        0.0814
     47 H          -0.0440    2.8230   -0.2040 H       1  UNL1        0.0814
     48 H           0.8785   -0.8745   -2.2735 H       1  UNL1        0.0636
     49 H           0.9841   -3.2879   -2.6221 H       1  UNL1        0.0619
     50 H           2.2005   -3.7327    1.3391 H       1  UNL1        0.0829
     51 H          -2.7415    4.1498    1.7813 H       1  UNL1        0.0873
     52 H          -1.5983    4.4910    0.4809 H       1  UNL1        0.0873
     53 H           1.6582   -4.7347   -0.7756 H       1  UNL1        0.0633
     54 H           2.1923    5.3549    3.6319 H       1  UNL1        0.0659
     55 H           0.4284    6.1425    5.2672 H       1  UNL1        0.0694
     56 H           3.1503    3.7160    0.5006 H       1  UNL1        0.0660
     57 H           3.0822    3.6399    2.2450 H       1  UNL1        0.0660
     58 H           3.0315    5.1874    1.4353 H       1  UNL1        0.0660
@<TRIPOS>UNITY_ATOM_ATTR
5 1
charge 1
@<TRIPOS>BOND
     1     1    23   ar
     2     1    26   ar
     3     2     6    1
     4     2    15    1
     5     3    24    1
     6     3    27    1
     7     4    16   ar
     8     4    20   ar
     9     5    17    1
    10     5    21    1
    11     5    28    1
    12     5    29    1
    13     6     8    1
    14     6     9    1
    15     6    10    1
    16     7     8    1
    17     7    11    1
    18     7    14    1
    19     7    16    1
    20     8    30    1
    21     8    31    1
    22     9    12    1
    23     9    32    1
    24     9    33    1
    25    10    13    1
    26    10    34    1
    27    10    35    1
    28    11    15    1
    29    11    36    1
    30    11    37    1
    31    12    13    1
    32    12    38    1
    33    12    39    1
    34    13    40    1
    35    13    41    1
    36    14    17    1
    37    14    42    1
    38    14    43    1
    39    15    44    1
    40    15    45    1
    41    16    18   ar
    42    17    46    1
    43    17    47    1
    44    18    19   ar
    45    18    48    1
    46    19    22   ar
    47    19    49    1
    48    20    22   ar
    49    20    50    1
    50    21    23    1
    51    21    51    1
    52    21    52    1
    53    22    53    1
    54    23    24   ar
    55    24    25   ar
    56    25    26   ar
    57    25    54    1
    58    26    55    1
    59    27    56    1
    60    27    57    1
    61    27    58    1
@<TRIPOS>MOLECULE
66553195
 58 61 0 0 0
SMALL
GASTEIGER

@<TRIPOS>ATOM
      1 S          -0.3170    1.3963    4.7338 S.2     1  UNL1       -0.0926
      2 O           3.9947    1.8338   -0.6210 O.3     1  UNL1       -0.3733
      3 O          -0.6273    4.6253    2.6321 O.3     1  UNL1       -0.4941
      4 N           2.3917   -1.7141    0.4672 N.ar    1  UNL1       -0.2593
      5 N          -1.6350    0.3940    2.2612 N.4     1  UNL1        0.2308
      6 C           3.9072    1.0510    0.5757 C.3     1  UNL1        0.0704
      7 C           1.4313    0.5057   -0.0051 C.3     1  UNL1        0.0224
      8 C           2.4527    0.9788    1.0713 C.3     1  UNL1       -0.0124
      9 C           4.8008    1.7382    1.6213 C.3     1  UNL1       -0.0237
     10 C           4.6231   -0.2974    0.4268 C.3     1  UNL1       -0.0237
     11 C           1.6850    1.3950   -1.2530 C.3     1  UNL1       -0.0181
     12 C           6.2268    1.3540    1.2306 C.3     1  UNL1       -0.0504
     13 C           6.1087    0.0588    0.4313 C.3     1  UNL1       -0.0504
     14 C          -0.0007    0.8133    0.4991 C.3     1  UNL1       -0.0013
     15 C           3.1485    1.4020   -1.6812 C.3     1  UNL1        0.0492
     16 C           1.4898   -1.0143   -0.2569 C.ar    1  UNL1        0.0478
     17 C          -0.2774    0.1027    1.8165 C.3     1  UNL1       -0.0325
     18 C           0.6363   -1.5809   -1.1898 C.ar    1  UNL1       -0.0398
     19 C           0.7132   -2.9543   -1.3924 C.ar    1  UNL1       -0.0586
     20 C           2.4377   -3.0466    0.2430 C.ar    1  UNL1        0.0279
     21 C          -1.8260    1.8261    2.4428 C.3     1  UNL1        0.0021
     22 C           1.6284   -3.7083   -0.6662 C.ar    1  UNL1       -0.0436
     23 C          -0.8702    2.3949    3.4577 C.ar    1  UNL1        0.0756
     24 C          -0.3390    3.6641    3.5269 C.ar    1  UNL1        0.1353
     25 C           0.5338    3.8185    4.6425 C.ar    1  UNL1       -0.0124
     26 C           0.6364    2.6616    5.3833 C.ar    1  UNL1       -0.0203
     27 C           0.3822    5.6085    2.3632 C.3     1  UNL1        0.0788
     28 H          -1.8051   -0.0806    3.1479 H       1  UNL1        0.2017
     29 H          -2.2885    0.0656    1.5503 H       1  UNL1        0.2017
     30 H           2.1628    1.9541    1.4025 H       1  UNL1        0.0302
     31 H           2.4318    0.2502    1.8546 H       1  UNL1        0.0302
     32 H           4.5711    1.3839    2.6045 H       1  UNL1        0.0293
     33 H           4.6591    2.7986    1.6388 H       1  UNL1        0.0293
     34 H           4.3502   -0.7715   -0.4928 H       1  UNL1        0.0293
     35 H           4.3659   -0.9840    1.2061 H       1  UNL1        0.0293
     36 H           1.3901    2.3979   -1.0246 H       1  UNL1        0.0296
     37 H           1.1131    0.9894   -2.0613 H       1  UNL1        0.0296
     38 H           6.8229    1.1982    2.1054 H       1  UNL1        0.0266
     39 H           6.6984    2.1260    0.6592 H       1  UNL1        0.0266
     40 H           6.4591    0.2056   -0.5690 H       1  UNL1        0.0266
     41 H           6.6986   -0.7233    0.8618 H       1  UNL1        0.0266
     42 H          -0.7081    0.4828   -0.2325 H       1  UNL1        0.0326
     43 H          -0.0890    1.8682    0.6548 H       1  UNL1        0.0326
     44 H           3.4315    0.4119   -1.9720 H       1  UNL1        0.0560
     45 H           3.2580    2.0824   -2.4997 H       1  UNL1        0.0560
     46 H          -0.1674   -0.9529    1.6803 H       1  UNL1        0.0814
     47 H           0.4168    0.4462    2.5548 H       1  UNL1        0.0814
     48 H          -0.0353   -1.0018   -1.7176 H       1  UNL1        0.0636
     49 H           0.0936   -3.4122   -2.0789 H       1  UNL1        0.0619
     50 H           3.1175   -3.6052    0.7823 H       1  UNL1        0.0829
     51 H          -2.8280    2.0024    2.7742 H       1  UNL1        0.0873
     52 H          -1.6398    2.3072    1.5053 H       1  UNL1        0.0873
     53 H           1.7024   -4.7289   -0.8004 H       1  UNL1        0.0633
     54 H           1.0307    4.6942    4.8690 H       1  UNL1        0.0659
     55 H           1.2192    2.5685    6.2298 H       1  UNL1        0.0694
     56 H           0.0174    6.3051    1.6376 H       1  UNL1        0.0660
     57 H           1.2588    5.1254    1.9847 H       1  UNL1        0.0660
     58 H           0.6235    6.1284    3.2668 H       1  UNL1        0.0660
@<TRIPOS>UNITY_ATOM_ATTR
5 1
charge 1
@<TRIPOS>BOND
     1     1    23   ar
     2     1    26   ar
     3     2     6    1
     4     2    15    1
     5     3    24    1
     6     3    27    1
     7     4    16   ar
     8     4    20   ar
     9     5    17    1
    10     5    21    1
    11     5    28    1
    12     5    29    1
    13     6     8    1
    14     6     9    1
    15     6    10    1
    16     7     8    1
    17     7    11    1
    18     7    14    1
    19     7    16    1
    20     8    30    1
    21     8    31    1
    22     9    12    1
    23     9    32    1
    24     9    33    1
    25    10    13    1
    26    10    34    1
    27    10    35    1
    28    11    15    1
    29    11    36    1
    30    11    37    1
    31    12    13    1
    32    12    38    1
    33    12    39    1
    34    13    40    1
    35    13    41    1
    36    14    17    1
    37    14    42    1
    38    14    43    1
    39    15    44    1
    40    15    45    1
    41    16    18   ar
    42    17    46    1
    43    17    47    1
    44    18    19   ar
    45    18    48    1
    46    19    22   ar
    47    19    49    1
    48    20    22   ar
    49    20    50    1
    50    21    23    1
    51    21    51    1
    52    21    52    1
    53    22    53    1
    54    23    24   ar
    55    24    25   ar
    56    25    26   ar
    57    25    54    1
    58    26    55    1
    59    27    56    1
    60    27    57    1
    61    27    58    1
@<TRIPOS>MOLECULE
66553195
 58 61 0 0 0
SMALL
GASTEIGER

@<TRIPOS>ATOM
      1 S          -4.1834   -2.3918   -0.3287 S.2     1  UNL1       -0.0926
      2 O           3.9947    1.8338   -0.6210 O.3     1  UNL1       -0.3733
      3 O          -3.6119    0.9309   -2.2191 O.3     1  UNL1       -0.4941
      4 N           0.6793   -1.7857    0.5017 N.ar    1  UNL1       -0.2593
      5 N          -0.9367   -1.0864   -0.7122 N.4     1  UNL1        0.2308
      6 C           3.9072    1.0510    0.5757 C.3     1  UNL1        0.0704
      7 C           1.4313    0.5057   -0.0051 C.3     1  UNL1        0.0224
      8 C           2.4527    0.9788    1.0713 C.3     1  UNL1       -0.0124
      9 C           4.8008    1.7382    1.6213 C.3     1  UNL1       -0.0237
     10 C           4.6231   -0.2974    0.4268 C.3     1  UNL1       -0.0237
     11 C           1.6850    1.3950   -1.2530 C.3     1  UNL1       -0.0181
     12 C           6.2268    1.3540    1.2306 C.3     1  UNL1       -0.0504
     13 C           6.1087    0.0588    0.4313 C.3     1  UNL1       -0.0504
     14 C          -0.0007    0.8133    0.4991 C.3     1  UNL1       -0.0013
     15 C           3.1485    1.4020   -1.6812 C.3     1  UNL1        0.0492
     16 C           1.4898   -1.0143   -0.2569 C.ar    1  UNL1        0.0478
     17 C          -1.0428    0.3538   -0.5107 C.3     1  UNL1       -0.0325
     18 C           2.3481   -1.5091   -1.2255 C.ar    1  UNL1       -0.0398
     19 C           2.3761   -2.8842   -1.4290 C.ar    1  UNL1       -0.0586
     20 C           0.7340   -3.1176    0.2757 C.ar    1  UNL1        0.0279
     21 C          -1.9140   -1.5477   -1.6880 C.3     1  UNL1        0.0021
     22 C           1.5567   -3.7107   -0.6683 C.ar    1  UNL1       -0.0436
     23 C          -3.3238   -1.2393   -1.2585 C.ar    1  UNL1        0.0756
     24 C          -4.0755   -0.1122   -1.5085 C.ar    1  UNL1        0.1353
     25 C          -5.3743   -0.1962   -0.9290 C.ar    1  UNL1       -0.0124
     26 C          -5.5659   -1.3840   -0.2581 C.ar    1  UNL1       -0.0203
     27 C          -4.5622    1.6985   -2.9712 C.3     1  UNL1        0.0788
     28 H          -1.1015   -1.5609    0.1756 H       1  UNL1        0.2017
     29 H          -0.0021   -1.2987   -1.0614 H       1  UNL1        0.2017
     30 H           2.1628    1.9541    1.4025 H       1  UNL1        0.0302
     31 H           2.4318    0.2502    1.8546 H       1  UNL1        0.0302
     32 H           4.5711    1.3839    2.6045 H       1  UNL1        0.0293
     33 H           4.6591    2.7986    1.6388 H       1  UNL1        0.0293
     34 H           4.3502   -0.7715   -0.4928 H       1  UNL1        0.0293
     35 H           4.3659   -0.9840    1.2061 H       1  UNL1        0.0293
     36 H           1.3901    2.3979   -1.0246 H       1  UNL1        0.0296
     37 H           1.1131    0.9894   -2.0613 H       1  UNL1        0.0296
     38 H           6.8229    1.1982    2.1054 H       1  UNL1        0.0266
     39 H           6.6984    2.1260    0.6592 H       1  UNL1        0.0266
     40 H           6.4591    0.2056   -0.5690 H       1  UNL1        0.0266
     41 H           6.6986   -0.7233    0.8618 H       1  UNL1        0.0266
     42 H          -0.1000    1.8680    0.6496 H       1  UNL1        0.0326
     43 H          -0.1599    0.2879    1.4175 H       1  UNL1        0.0326
     44 H           3.4315    0.4119   -1.9720 H       1  UNL1        0.0560
     45 H           3.2580    2.0824   -2.4997 H       1  UNL1        0.0560
     46 H          -2.0202    0.5898   -0.1445 H       1  UNL1        0.0814
     47 H          -0.8755    0.8533   -1.4421 H       1  UNL1        0.0814
     48 H           2.9477   -0.8769   -1.7786 H       1  UNL1        0.0636
     49 H           3.0026   -3.2898   -2.1417 H       1  UNL1        0.0619
     50 H           0.1256   -3.7300    0.8411 H       1  UNL1        0.0829
     51 H          -1.8120   -2.6063   -1.8061 H       1  UNL1        0.0873
     52 H          -1.7287   -1.0375   -2.6101 H       1  UNL1        0.0873
     53 H           1.5611   -4.7340   -0.8026 H       1  UNL1        0.0633
     54 H          -6.0879    0.5458   -1.0031 H       1  UNL1        0.0659
     55 H          -6.4396   -1.6366    0.2295 H       1  UNL1        0.0694
     56 H          -4.0561    2.4901   -3.4832 H       1  UNL1        0.0660
     57 H          -5.2920    2.1124   -2.3071 H       1  UNL1        0.0660
     58 H          -5.0475    1.0654   -3.6845 H       1  UNL1        0.0660
@<TRIPOS>UNITY_ATOM_ATTR
5 1
charge 1
@<TRIPOS>BOND
     1     1    23   ar
     2     1    26   ar
     3     2     6    1
     4     2    15    1
     5     3    24    1
     6     3    27    1
     7     4    16   ar
     8     4    20   ar
     9     5    17    1
    10     5    21    1
    11     5    28    1
    12     5    29    1
    13     6     8    1
    14     6     9    1
    15     6    10    1
    16     7     8    1
    17     7    11    1
    18     7    14    1
    19     7    16    1
    20     8    30    1
    21     8    31    1
    22     9    12    1
    23     9    32    1
    24     9    33    1
    25    10    13    1
    26    10    34    1
    27    10    35    1
    28    11    15    1
    29    11    36    1
    30    11    37    1
    31    12    13    1
    32    12    38    1
    33    12    39    1
    34    13    40    1
    35    13    41    1
    36    14    17    1
    37    14    42    1
    38    14    43    1
    39    15    44    1
    40    15    45    1
    41    16    18   ar
    42    17    46    1
    43    17    47    1
    44    18    19   ar
    45    18    48    1
    46    19    22   ar
    47    19    49    1
    48    20    22   ar
    49    20    50    1
    50    21    23    1
    51    21    51    1
    52    21    52    1
    53    22    53    1
    54    23    24   ar
    55    24    25   ar
    56    25    26   ar
    57    25    54    1
    58    26    55    1
    59    27    56    1
    60    27    57    1
    61    27    58    1
@<TRIPOS>MOLECULE
66553195
 58 61 0 0 0
SMALL
GASTEIGER

@<TRIPOS>ATOM
      1 S          -3.1221   -2.1809    2.4499 S.2     1  UNL1       -0.0926
      2 O           3.9947    1.8338   -0.6210 O.3     1  UNL1       -0.3733
      3 O          -3.1577   -0.2278   -0.8854 O.3     1  UNL1       -0.4941
      4 N           0.6441   -1.5069   -1.1894 N.ar    1  UNL1       -0.2593
      5 N          -0.1319   -1.3376    1.6429 N.4     1  UNL1        0.2308
      6 C           3.9072    1.0510    0.5757 C.3     1  UNL1        0.0704
      7 C           1.4313    0.5057   -0.0051 C.3     1  UNL1        0.0224
      8 C           2.4527    0.9788    1.0713 C.3     1  UNL1       -0.0124
      9 C           4.8008    1.7382    1.6213 C.3     1  UNL1       -0.0237
     10 C           4.6231   -0.2974    0.4268 C.3     1  UNL1       -0.0237
     11 C           1.6850    1.3950   -1.2530 C.3     1  UNL1       -0.0181
     12 C           6.2268    1.3540    1.2306 C.3     1  UNL1       -0.0504
     13 C           6.1087    0.0588    0.4313 C.3     1  UNL1       -0.0504
     14 C          -0.0007    0.8133    0.4991 C.3     1  UNL1       -0.0013
     15 C           3.1485    1.4020   -1.6812 C.3     1  UNL1        0.0492
     16 C           1.4898   -1.0143   -0.2569 C.ar    1  UNL1        0.0478
     17 C          -0.2774    0.1027    1.8165 C.3     1  UNL1       -0.0325
     18 C           2.3845   -1.7877    0.4649 C.ar    1  UNL1       -0.0398
     19 C           2.4134   -3.1548    0.2132 C.ar    1  UNL1       -0.0586
     20 C           0.7007   -2.8401   -1.4068 C.ar    1  UNL1        0.0279
     21 C          -1.0532   -1.8344    0.6306 C.3     1  UNL1        0.0021
     22 C           1.5587   -3.6989   -0.7390 C.ar    1  UNL1       -0.0436
     23 C          -2.4874   -1.5502    0.9901 C.ar    1  UNL1        0.0756
     24 C          -3.4245   -0.8211    0.2912 C.ar    1  UNL1        0.1353
     25 C          -4.6800   -0.7799    0.9635 C.ar    1  UNL1       -0.0124
     26 C          -4.6548   -1.4788    2.1503 C.ar    1  UNL1       -0.0203
     27 C          -3.8700    0.9772   -1.1996 C.3     1  UNL1        0.0788
     28 H          -0.3276   -1.8024    2.5295 H       1  UNL1        0.2017
     29 H           0.8221   -1.5348    1.3403 H       1  UNL1        0.2017
     30 H           2.1628    1.9541    1.4025 H       1  UNL1        0.0302
     31 H           2.4318    0.2502    1.8546 H       1  UNL1        0.0302
     32 H           4.5711    1.3839    2.6045 H       1  UNL1        0.0293
     33 H           4.6591    2.7986    1.6388 H       1  UNL1        0.0293
     34 H           4.3502   -0.7715   -0.4928 H       1  UNL1        0.0293
     35 H           4.3659   -0.9840    1.2061 H       1  UNL1        0.0293
     36 H           1.3901    2.3979   -1.0246 H       1  UNL1        0.0296
     37 H           1.1131    0.9894   -2.0613 H       1  UNL1        0.0296
     38 H           6.8229    1.1982    2.1054 H       1  UNL1        0.0266
     39 H           6.6984    2.1260    0.6592 H       1  UNL1        0.0266
     40 H           6.4591    0.2056   -0.5690 H       1  UNL1        0.0266
     41 H           6.6986   -0.7233    0.8618 H       1  UNL1        0.0266
     42 H          -0.7081    0.4828   -0.2325 H       1  UNL1        0.0326
     43 H          -0.0890    1.8682    0.6548 H       1  UNL1        0.0326
     44 H           3.4315    0.4119   -1.9720 H       1  UNL1        0.0560
     45 H           3.2580    2.0824   -2.4997 H       1  UNL1        0.0560
     46 H           0.4171    0.4430    2.5560 H       1  UNL1        0.0814
     47 H          -1.2765    0.3206    2.1315 H       1  UNL1        0.0814
     48 H           3.0098   -1.3625    1.1673 H       1  UNL1        0.0636
     49 H           3.0665   -3.7633    0.7311 H       1  UNL1        0.0619
     50 H           0.0657   -3.2429   -2.1136 H       1  UNL1        0.0829
     51 H          -0.9237   -2.8922    0.5340 H       1  UNL1        0.0873
     52 H          -0.8362   -1.3339   -0.2899 H       1  UNL1        0.0873
     53 H           1.5633   -4.7108   -0.9420 H       1  UNL1        0.0633
     54 H          -5.5108   -0.2846    0.6035 H       1  UNL1        0.0659
     55 H          -5.4643   -1.5687    2.7841 H       1  UNL1        0.0694
     56 H          -3.5589    1.3356   -2.1586 H       1  UNL1        0.0660
     57 H          -3.6616    1.7187   -0.4568 H       1  UNL1        0.0660
     58 H          -4.9208    0.7760   -1.2177 H       1  UNL1        0.0660
@<TRIPOS>UNITY_ATOM_ATTR
5 1
charge 1
@<TRIPOS>BOND
     1     1    23   ar
     2     1    26   ar
     3     2     6    1
     4     2    15    1
     5     3    24    1
     6     3    27    1
     7     4    16   ar
     8     4    20   ar
     9     5    17    1
    10     5    21    1
    11     5    28    1
    12     5    29    1
    13     6     8    1
    14     6     9    1
    15     6    10    1
    16     7     8    1
    17     7    11    1
    18     7    14    1
    19     7    16    1
    20     8    30    1
    21     8    31    1
    22     9    12    1
    23     9    32    1
    24     9    33    1
    25    10    13    1
    26    10    34    1
    27    10    35    1
    28    11    15    1
    29    11    36    1
    30    11    37    1
    31    12    13    1
    32    12    38    1
    33    12    39    1
    34    13    40    1
    35    13    41    1
    36    14    17    1
    37    14    42    1
    38    14    43    1
    39    15    44    1
    40    15    45    1
    41    16    18   ar
    42    17    46    1
    43    17    47    1
    44    18    19   ar
    45    18    48    1
    46    19    22   ar
    47    19    49    1
    48    20    22   ar
    49    20    50    1
    50    21    23    1
    51    21    51    1
    52    21    52    1
    53    22    53    1
    54    23    24   ar
    55    24    25   ar
    56    25    26   ar
    57    25    54    1
    58    26    55    1
    59    27    56    1
    60    27    57    1
    61    27    58    1
@<TRIPOS>MOLECULE
66553195
 58 61 0 0 0
SMALL
GASTEIGER

@<TRIPOS>ATOM
      1 S          -0.3848    3.7804    1.0959 S.2     1  UNL1       -0.0926
      2 O           3.9947    1.8338   -0.6210 O.3     1  UNL1       -0.3733
      3 O          -3.2875    1.5968   -0.2255 O.3     1  UNL1       -0.4941
      4 N           0.6441   -1.5069   -1.1894 N.ar    1  UNL1       -0.2593
      5 N          -1.6350    0.3940    2.2612 N.4     1  UNL1        0.2308
      6 C           3.9072    1.0510    0.5757 C.3     1  UNL1        0.0704
      7 C           1.4313    0.5057   -0.0051 C.3     1  UNL1        0.0224
      8 C           2.4527    0.9788    1.0713 C.3     1  UNL1       -0.0124
      9 C           4.8008    1.7382    1.6213 C.3     1  UNL1       -0.0237
     10 C           4.6231   -0.2974    0.4268 C.3     1  UNL1       -0.0237
     11 C           1.6850    1.3950   -1.2530 C.3     1  UNL1       -0.0181
     12 C           6.2268    1.3540    1.2306 C.3     1  UNL1       -0.0504
     13 C           6.1087    0.0588    0.4313 C.3     1  UNL1       -0.0504
     14 C          -0.0007    0.8133    0.4991 C.3     1  UNL1       -0.0013
     15 C           3.1485    1.4020   -1.6812 C.3     1  UNL1        0.0492
     16 C           1.4898   -1.0143   -0.2569 C.ar    1  UNL1        0.0478
     17 C          -0.2774    0.1027    1.8165 C.3     1  UNL1       -0.0325
     18 C           2.3845   -1.7877    0.4649 C.ar    1  UNL1       -0.0398
     19 C           2.4134   -3.1548    0.2132 C.ar    1  UNL1       -0.0586
     20 C           0.7007   -2.8401   -1.4068 C.ar    1  UNL1        0.0279
     21 C          -1.8260    1.8261    2.4428 C.3     1  UNL1        0.0021
     22 C           1.5587   -3.6989   -0.7390 C.ar    1  UNL1       -0.0436
     23 C          -1.6111    2.5872    1.1615 C.ar    1  UNL1        0.0756
     24 C          -2.2825    2.4695   -0.0356 C.ar    1  UNL1        0.1353
     25 C          -1.7834    3.3709   -1.0196 C.ar    1  UNL1       -0.0124
     26 C          -0.7496    4.1431   -0.5373 C.ar    1  UNL1       -0.0203
     27 C          -3.4687    1.0678   -1.5467 C.3     1  UNL1        0.0788
     28 H          -1.8051   -0.0806    3.1479 H       1  UNL1        0.2017
     29 H          -2.2885    0.0656    1.5503 H       1  UNL1        0.2017
     30 H           2.1628    1.9541    1.4025 H       1  UNL1        0.0302
     31 H           2.4318    0.2502    1.8546 H       1  UNL1        0.0302
     32 H           4.5711    1.3839    2.6045 H       1  UNL1        0.0293
     33 H           4.6591    2.7986    1.6388 H       1  UNL1        0.0293
     34 H           4.3502   -0.7715   -0.4928 H       1  UNL1        0.0293
     35 H           4.3659   -0.9840    1.2061 H       1  UNL1        0.0293
     36 H           1.3901    2.3979   -1.0246 H       1  UNL1        0.0296
     37 H           1.1131    0.9894   -2.0613 H       1  UNL1        0.0296
     38 H           6.8229    1.1982    2.1054 H       1  UNL1        0.0266
     39 H           6.6984    2.1260    0.6592 H       1  UNL1        0.0266
     40 H           6.4591    0.2056   -0.5690 H       1  UNL1        0.0266
     41 H           6.6986   -0.7233    0.8618 H       1  UNL1        0.0266
     42 H          -0.7081    0.4828   -0.2325 H       1  UNL1        0.0326
     43 H          -0.0890    1.8682    0.6548 H       1  UNL1        0.0326
     44 H           3.4315    0.4119   -1.9720 H       1  UNL1        0.0560
     45 H           3.2580    2.0824   -2.4997 H       1  UNL1        0.0560
     46 H          -0.1674   -0.9529    1.6803 H       1  UNL1        0.0814
     47 H           0.4168    0.4462    2.5548 H       1  UNL1        0.0814
     48 H           3.0098   -1.3625    1.1673 H       1  UNL1        0.0636
     49 H           3.0665   -3.7633    0.7311 H       1  UNL1        0.0619
     50 H           0.0657   -3.2429   -2.1136 H       1  UNL1        0.0829
     51 H          -1.1298    2.1780    3.1753 H       1  UNL1        0.0873
     52 H          -2.8347    1.9888    2.7604 H       1  UNL1        0.0873
     53 H           1.5633   -4.7108   -0.9420 H       1  UNL1        0.0633
     54 H          -2.1530    3.4376   -1.9809 H       1  UNL1        0.0659
     55 H          -0.2535    4.8561   -1.0945 H       1  UNL1        0.0694
     56 H          -4.2982    0.3919   -1.5495 H       1  UNL1        0.0660
     57 H          -2.5833    0.5473   -1.8469 H       1  UNL1        0.0660
     58 H          -3.6597    1.8697   -2.2289 H       1  UNL1        0.0660
@<TRIPOS>UNITY_ATOM_ATTR
5 1
charge 1
@<TRIPOS>BOND
     1     1    23   ar
     2     1    26   ar
     3     2     6    1
     4     2    15    1
     5     3    24    1
     6     3    27    1
     7     4    16   ar
     8     4    20   ar
     9     5    17    1
    10     5    21    1
    11     5    28    1
    12     5    29    1
    13     6     8    1
    14     6     9    1
    15     6    10    1
    16     7     8    1
    17     7    11    1
    18     7    14    1
    19     7    16    1
    20     8    30    1
    21     8    31    1
    22     9    12    1
    23     9    32    1
    24     9    33    1
    25    10    13    1
    26    10    34    1
    27    10    35    1
    28    11    15    1
    29    11    36    1
    30    11    37    1
    31    12    13    1
    32    12    38    1
    33    12    39    1
    34    13    40    1
    35    13    41    1
    36    14    17    1
    37    14    42    1
    38    14    43    1
    39    15    44    1
    40    15    45    1
    41    16    18   ar
    42    17    46    1
    43    17    47    1
    44    18    19   ar
    45    18    48    1
    46    19    22   ar
    47    19    49    1
    48    20    22   ar
    49    20    50    1
    50    21    23    1
    51    21    51    1
    52    21    52    1
    53    22    53    1
    54    23    24   ar
    55    24    25   ar
    56    25    26   ar
    57    25    54    1
    58    26    55    1
    59    27    56    1
    60    27    57    1
    61    27    58    1
@<TRIPOS>MOLECULE
66553195
 58 61 0 0 0
SMALL
GASTEIGER

@<TRIPOS>ATOM
      1 S          -0.8630    6.2318    2.8053 S.2     1  UNL1       -0.0926
      2 O           3.9947    1.8338   -0.6210 O.3     1  UNL1       -0.3733
      3 O           0.5090    2.6209    2.9434 O.3     1  UNL1       -0.4941
      4 N           2.6736   -1.5136   -0.6773 N.ar    1  UNL1       -0.2593
      5 N          -1.5373    2.5691    1.2118 N.4     1  UNL1        0.2308
      6 C           3.9072    1.0510    0.5757 C.3     1  UNL1        0.0704
      7 C           1.4313    0.5057   -0.0051 C.3     1  UNL1        0.0224
      8 C           2.4527    0.9788    1.0713 C.3     1  UNL1       -0.0124
      9 C           4.8008    1.7382    1.6213 C.3     1  UNL1       -0.0237
     10 C           4.6231   -0.2974    0.4268 C.3     1  UNL1       -0.0237
     11 C           1.6850    1.3950   -1.2530 C.3     1  UNL1       -0.0181
     12 C           6.2268    1.3540    1.2306 C.3     1  UNL1       -0.0504
     13 C           6.1087    0.0588    0.4313 C.3     1  UNL1       -0.0504
     14 C          -0.0007    0.8133    0.4991 C.3     1  UNL1       -0.0013
     15 C           3.1485    1.4020   -1.6812 C.3     1  UNL1        0.0492
     16 C           1.4898   -1.0143   -0.2569 C.ar    1  UNL1        0.0478
     17 C          -0.1891    2.3072    0.7222 C.3     1  UNL1       -0.0325
     18 C           0.3554   -1.7812   -0.0456 C.ar    1  UNL1       -0.0398
     19 C           0.4416   -3.1489   -0.2805 C.ar    1  UNL1       -0.0586
     20 C           2.7193   -2.8472   -0.8953 C.ar    1  UNL1        0.0279
     21 C          -1.7472    3.9952    1.4173 C.3     1  UNL1        0.0021
     22 C           1.6425   -3.6999   -0.7135 C.ar    1  UNL1       -0.0436
     23 C          -0.7708    4.5684    2.4098 C.ar    1  UNL1        0.0756
     24 C           0.2434    3.9307    3.0901 C.ar    1  UNL1        0.1353
     25 C           0.9540    4.8198    3.9471 C.ar    1  UNL1       -0.0124
     26 C           0.4560    6.1028    3.8895 C.ar    1  UNL1       -0.0203
     27 C           1.0537    1.9220    4.0717 C.3     1  UNL1        0.0788
     28 H          -1.6719    2.0807    2.0971 H       1  UNL1        0.2017
     29 H          -2.2066    2.2379    0.5170 H       1  UNL1        0.2017
     30 H           2.1628    1.9541    1.4025 H       1  UNL1        0.0302
     31 H           2.4318    0.2502    1.8546 H       1  UNL1        0.0302
     32 H           4.5711    1.3839    2.6045 H       1  UNL1        0.0293
     33 H           4.6591    2.7986    1.6388 H       1  UNL1        0.0293
     34 H           4.3502   -0.7715   -0.4928 H       1  UNL1        0.0293
     35 H           4.3659   -0.9840    1.2061 H       1  UNL1        0.0293
     36 H           1.3901    2.3979   -1.0246 H       1  UNL1        0.0296
     37 H           1.1131    0.9894   -2.0613 H       1  UNL1        0.0296
     38 H           6.8229    1.1982    2.1054 H       1  UNL1        0.0266
     39 H           6.6984    2.1260    0.6592 H       1  UNL1        0.0266
     40 H           6.4591    0.2056   -0.5690 H       1  UNL1        0.0266
     41 H           6.6986   -0.7233    0.8618 H       1  UNL1        0.0266
     42 H          -0.1653    0.2978    1.4221 H       1  UNL1        0.0326
     43 H          -0.7011    0.4874   -0.2413 H       1  UNL1        0.0326
     44 H           3.4315    0.4119   -1.9720 H       1  UNL1        0.0560
     45 H           3.2580    2.0824   -2.4997 H       1  UNL1        0.0560
     46 H           0.5232    2.6510    1.4429 H       1  UNL1        0.0814
     47 H          -0.0440    2.8230   -0.2040 H       1  UNL1        0.0814
     48 H          -0.5258   -1.3509    0.2761 H       1  UNL1        0.0636
     49 H          -0.3824   -3.7527   -0.1341 H       1  UNL1        0.0619
     50 H           3.6111   -3.2550   -1.2169 H       1  UNL1        0.0829
     51 H          -2.7415    4.1498    1.7813 H       1  UNL1        0.0873
     52 H          -1.5983    4.4910    0.4809 H       1  UNL1        0.0873
     53 H           1.7291   -4.7124   -0.8938 H       1  UNL1        0.0633
     54 H           1.7486    4.5358    4.5414 H       1  UNL1        0.0659
     55 H           0.8333    6.8932    4.4354 H       1  UNL1        0.0694
     56 H           1.2136    0.8963    3.8126 H       1  UNL1        0.0660
     57 H           0.3690    1.9803    4.8919 H       1  UNL1        0.0660
     58 H           1.9849    2.3683    4.3521 H       1  UNL1        0.0660
@<TRIPOS>UNITY_ATOM_ATTR
5 1
charge 1
@<TRIPOS>BOND
     1     1    23   ar
     2     1    26   ar
     3     2     6    1
     4     2    15    1
     5     3    24    1
     6     3    27    1
     7     4    16   ar
     8     4    20   ar
     9     5    17    1
    10     5    21    1
    11     5    28    1
    12     5    29    1
    13     6     8    1
    14     6     9    1
    15     6    10    1
    16     7     8    1
    17     7    11    1
    18     7    14    1
    19     7    16    1
    20     8    30    1
    21     8    31    1
    22     9    12    1
    23     9    32    1
    24     9    33    1
    25    10    13    1
    26    10    34    1
    27    10    35    1
    28    11    15    1
    29    11    36    1
    30    11    37    1
    31    12    13    1
    32    12    38    1
    33    12    39    1
    34    13    40    1
    35    13    41    1
    36    14    17    1
    37    14    42    1
    38    14    43    1
    39    15    44    1
    40    15    45    1
    41    16    18   ar
    42    17    46    1
    43    17    47    1
    44    18    19   ar
    45    18    48    1
    46    19    22   ar
    47    19    49    1
    48    20    22   ar
    49    20    50    1
    50    21    23    1
    51    21    51    1
    52    21    52    1
    53    22    53    1
    54    23    24   ar
    55    24    25   ar
    56    25    26   ar
    57    25    54    1
    58    26    55    1
    59    27    56    1
    60    27    57    1
    61    27    58    1
@<TRIPOS>MOLECULE
66553195
 58 61 0 0 0
SMALL
GASTEIGER

@<TRIPOS>ATOM
      1 S          -1.8552   -0.3886    1.2895 S.2     1  UNL1       -0.0926
      2 O           3.9947    1.8338   -0.6210 O.3     1  UNL1       -0.3733
      3 O          -3.2247    0.4669   -2.2223 O.3     1  UNL1       -0.4941
      4 N           2.3917   -1.7141    0.4672 N.ar    1  UNL1       -0.2593
      5 N          -1.5373    2.5691    1.2118 N.4     1  UNL1        0.2308
      6 C           3.9072    1.0510    0.5757 C.3     1  UNL1        0.0704
      7 C           1.4313    0.5057   -0.0051 C.3     1  UNL1        0.0224
      8 C           2.4527    0.9788    1.0713 C.3     1  UNL1       -0.0124
      9 C           4.8008    1.7382    1.6213 C.3     1  UNL1       -0.0237
     10 C           4.6231   -0.2974    0.4268 C.3     1  UNL1       -0.0237
     11 C           1.6850    1.3950   -1.2530 C.3     1  UNL1       -0.0181
     12 C           6.2268    1.3540    1.2306 C.3     1  UNL1       -0.0504
     13 C           6.1087    0.0588    0.4313 C.3     1  UNL1       -0.0504
     14 C          -0.0007    0.8133    0.4991 C.3     1  UNL1       -0.0013
     15 C           3.1485    1.4020   -1.6812 C.3     1  UNL1        0.0492
     16 C           1.4898   -1.0143   -0.2569 C.ar    1  UNL1        0.0478
     17 C          -0.1891    2.3072    0.7222 C.3     1  UNL1       -0.0325
     18 C           0.6363   -1.5809   -1.1898 C.ar    1  UNL1       -0.0398
     19 C           0.7132   -2.9543   -1.3924 C.ar    1  UNL1       -0.0586
     20 C           2.4377   -3.0466    0.2430 C.ar    1  UNL1        0.0279
     21 C          -2.5353    2.0995    0.2612 C.3     1  UNL1        0.0021
     22 C           1.6284   -3.7083   -0.6662 C.ar    1  UNL1       -0.0436
     23 C          -2.4335    0.6153    0.0287 C.ar    1  UNL1        0.0756
     24 C          -2.7501   -0.1052   -1.1020 C.ar    1  UNL1        0.1353
     25 C          -2.5147   -1.4999   -0.9308 C.ar    1  UNL1       -0.0124
     26 C          -2.0274   -1.7923    0.3241 C.ar    1  UNL1       -0.0203
     27 C          -3.9953    1.6687   -2.0807 C.3     1  UNL1        0.0788
     28 H          -1.6536    3.5731    1.3494 H       1  UNL1        0.2017
     29 H          -1.6666    2.0715    2.0928 H       1  UNL1        0.2017
     30 H           2.1628    1.9541    1.4025 H       1  UNL1        0.0302
     31 H           2.4318    0.2502    1.8546 H       1  UNL1        0.0302
     32 H           4.5711    1.3839    2.6045 H       1  UNL1        0.0293
     33 H           4.6591    2.7986    1.6388 H       1  UNL1        0.0293
     34 H           4.3502   -0.7715   -0.4928 H       1  UNL1        0.0293
     35 H           4.3659   -0.9840    1.2061 H       1  UNL1        0.0293
     36 H           1.3901    2.3979   -1.0246 H       1  UNL1        0.0296
     37 H           1.1131    0.9894   -2.0613 H       1  UNL1        0.0296
     38 H           6.8229    1.1982    2.1054 H       1  UNL1        0.0266
     39 H           6.6984    2.1260    0.6592 H       1  UNL1        0.0266
     40 H           6.4591    0.2056   -0.5690 H       1  UNL1        0.0266
     41 H           6.6986   -0.7233    0.8618 H       1  UNL1        0.0266
     42 H          -0.1653    0.2978    1.4221 H       1  UNL1        0.0326
     43 H          -0.7011    0.4874   -0.2413 H       1  UNL1        0.0326
     44 H           3.4315    0.4119   -1.9720 H       1  UNL1        0.0560
     45 H           3.2580    2.0824   -2.4997 H       1  UNL1        0.0560
     46 H           0.5232    2.6510    1.4429 H       1  UNL1        0.0814
     47 H          -0.0440    2.8230   -0.2040 H       1  UNL1        0.0814
     48 H          -0.0353   -1.0018   -1.7176 H       1  UNL1        0.0636
     49 H           0.0936   -3.4122   -2.0789 H       1  UNL1        0.0619
     50 H           3.1175   -3.6052    0.7823 H       1  UNL1        0.0829
     51 H          -2.3917    2.6063   -0.6701 H       1  UNL1        0.0873
     52 H          -3.5035    2.3062    0.6672 H       1  UNL1        0.0873
     53 H           1.7024   -4.7289   -0.8004 H       1  UNL1        0.0633
     54 H          -2.6889   -2.2079   -1.6612 H       1  UNL1        0.0659
     55 H          -1.7936   -2.7450    0.6445 H       1  UNL1        0.0694
     56 H          -4.3051    2.0096   -3.0465 H       1  UNL1        0.0660
     57 H          -3.3979    2.4222   -1.6112 H       1  UNL1        0.0660
     58 H          -4.8575    1.4707   -1.4788 H       1  UNL1        0.0660
@<TRIPOS>UNITY_ATOM_ATTR
5 1
charge 1
@<TRIPOS>BOND
     1     1    23   ar
     2     1    26   ar
     3     2     6    1
     4     2    15    1
     5     3    24    1
     6     3    27    1
     7     4    16   ar
     8     4    20   ar
     9     5    17    1
    10     5    21    1
    11     5    28    1
    12     5    29    1
    13     6     8    1
    14     6     9    1
    15     6    10    1
    16     7     8    1
    17     7    11    1
    18     7    14    1
    19     7    16    1
    20     8    30    1
    21     8    31    1
    22     9    12    1
    23     9    32    1
    24     9    33    1
    25    10    13    1
    26    10    34    1
    27    10    35    1
    28    11    15    1
    29    11    36    1
    30    11    37    1
    31    12    13    1
    32    12    38    1
    33    12    39    1
    34    13    40    1
    35    13    41    1
    36    14    17    1
    37    14    42    1
    38    14    43    1
    39    15    44    1
    40    15    45    1
    41    16    18   ar
    42    17    46    1
    43    17    47    1
    44    18    19   ar
    45    18    48    1
    46    19    22   ar
    47    19    49    1
    48    20    22   ar
    49    20    50    1
    50    21    23    1
    51    21    51    1
    52    21    52    1
    53    22    53    1
    54    23    24   ar
    55    24    25   ar
    56    25    26   ar
    57    25    54    1
    58    26    55    1
    59    27    56    1
    60    27    57    1
    61    27    58    1
@<TRIPOS>MOLECULE
66553195
 58 61 0 0 0
SMALL
GASTEIGER

@<TRIPOS>ATOM
      1 S          -5.2594    1.8815   -0.2314 S.2     1  UNL1       -0.0926
      2 O           3.9947    1.8338   -0.6210 O.3     1  UNL1       -0.3733
      3 O          -3.4884    3.4689    2.8156 O.3     1  UNL1       -0.4941
      4 N           0.6793   -1.7857    0.5017 N.ar    1  UNL1       -0.2593
      5 N          -1.5373    2.5691    1.2118 N.4     1  UNL1        0.2308
      6 C           3.9072    1.0510    0.5757 C.3     1  UNL1        0.0704
      7 C           1.4313    0.5057   -0.0051 C.3     1  UNL1        0.0224
      8 C           2.4527    0.9788    1.0713 C.3     1  UNL1       -0.0124
      9 C           4.8008    1.7382    1.6213 C.3     1  UNL1       -0.0237
     10 C           4.6231   -0.2974    0.4268 C.3     1  UNL1       -0.0237
     11 C           1.6850    1.3950   -1.2530 C.3     1  UNL1       -0.0181
     12 C           6.2268    1.3540    1.2306 C.3     1  UNL1       -0.0504
     13 C           6.1087    0.0588    0.4313 C.3     1  UNL1       -0.0504
     14 C          -0.0007    0.8133    0.4991 C.3     1  UNL1       -0.0013
     15 C           3.1485    1.4020   -1.6812 C.3     1  UNL1        0.0492
     16 C           1.4898   -1.0143   -0.2569 C.ar    1  UNL1        0.0478
     17 C          -0.1891    2.3072    0.7222 C.3     1  UNL1       -0.0325
     18 C           2.3481   -1.5091   -1.2255 C.ar    1  UNL1       -0.0398
     19 C           2.3761   -2.8842   -1.4290 C.ar    1  UNL1       -0.0586
     20 C           0.7340   -3.1176    0.2757 C.ar    1  UNL1        0.0279
     21 C          -2.5353    2.0995    0.2612 C.3     1  UNL1        0.0021
     22 C           1.5567   -3.7107   -0.6683 C.ar    1  UNL1       -0.0436
     23 C          -3.9368    2.3747    0.7379 C.ar    1  UNL1        0.0756
     24 C          -4.3483    2.9957    1.8967 C.ar    1  UNL1        0.1353
     25 C          -5.7682    3.0674    1.9899 C.ar    1  UNL1       -0.0124
     26 C          -6.3879    2.4985    0.8990 C.ar    1  UNL1       -0.0203
     27 C          -3.9144    3.4733    4.1855 C.3     1  UNL1        0.0788
     28 H          -1.6536    3.5731    1.3494 H       1  UNL1        0.2017
     29 H          -1.6666    2.0715    2.0928 H       1  UNL1        0.2017
     30 H           2.1628    1.9541    1.4025 H       1  UNL1        0.0302
     31 H           2.4318    0.2502    1.8546 H       1  UNL1        0.0302
     32 H           4.5711    1.3839    2.6045 H       1  UNL1        0.0293
     33 H           4.6591    2.7986    1.6388 H       1  UNL1        0.0293
     34 H           4.3502   -0.7715   -0.4928 H       1  UNL1        0.0293
     35 H           4.3659   -0.9840    1.2061 H       1  UNL1        0.0293
     36 H           1.3901    2.3979   -1.0246 H       1  UNL1        0.0296
     37 H           1.1131    0.9894   -2.0613 H       1  UNL1        0.0296
     38 H           6.8229    1.1982    2.1054 H       1  UNL1        0.0266
     39 H           6.6984    2.1260    0.6592 H       1  UNL1        0.0266
     40 H           6.4591    0.2056   -0.5690 H       1  UNL1        0.0266
     41 H           6.6986   -0.7233    0.8618 H       1  UNL1        0.0266
     42 H          -0.1653    0.2978    1.4221 H       1  UNL1        0.0326
     43 H          -0.7011    0.4874   -0.2413 H       1  UNL1        0.0326
     44 H           3.4315    0.4119   -1.9720 H       1  UNL1        0.0560
     45 H           3.2580    2.0824   -2.4997 H       1  UNL1        0.0560
     46 H           0.5232    2.6510    1.4429 H       1  UNL1        0.0814
     47 H          -0.0440    2.8230   -0.2040 H       1  UNL1        0.0814
     48 H           2.9477   -0.8769   -1.7786 H       1  UNL1        0.0636
     49 H           3.0026   -3.2898   -2.1417 H       1  UNL1        0.0619
     50 H           0.1256   -3.7300    0.8411 H       1  UNL1        0.0829
     51 H          -2.4163    1.0445    0.1273 H       1  UNL1        0.0873
     52 H          -2.3890    2.6238   -0.6599 H       1  UNL1        0.0873
     53 H           1.5611   -4.7340   -0.8026 H       1  UNL1        0.0633
     54 H          -6.2732    3.4954    2.7817 H       1  UNL1        0.0659
     55 H          -7.4115    2.4499    0.7773 H       1  UNL1        0.0694
     56 H          -3.1352    3.8736    4.8000 H       1  UNL1        0.0660
     57 H          -4.1335    2.4725    4.4941 H       1  UNL1        0.0660
     58 H          -4.7921    4.0773    4.2841 H       1  UNL1        0.0660
@<TRIPOS>UNITY_ATOM_ATTR
5 1
charge 1
@<TRIPOS>BOND
     1     1    23   ar
     2     1    26   ar
     3     2     6    1
     4     2    15    1
     5     3    24    1
     6     3    27    1
     7     4    16   ar
     8     4    20   ar
     9     5    17    1
    10     5    21    1
    11     5    28    1
    12     5    29    1
    13     6     8    1
    14     6     9    1
    15     6    10    1
    16     7     8    1
    17     7    11    1
    18     7    14    1
    19     7    16    1
    20     8    30    1
    21     8    31    1
    22     9    12    1
    23     9    32    1
    24     9    33    1
    25    10    13    1
    26    10    34    1
    27    10    35    1
    28    11    15    1
    29    11    36    1
    30    11    37    1
    31    12    13    1
    32    12    38    1
    33    12    39    1
    34    13    40    1
    35    13    41    1
    36    14    17    1
    37    14    42    1
    38    14    43    1
    39    15    44    1
    40    15    45    1
    41    16    18   ar
    42    17    46    1
    43    17    47    1
    44    18    19   ar
    45    18    48    1
    46    19    22   ar
    47    19    49    1
    48    20    22   ar
    49    20    50    1
    50    21    23    1
    51    21    51    1
    52    21    52    1
    53    22    53    1
    54    23    24   ar
    55    24    25   ar
    56    25    26   ar
    57    25    54    1
    58    26    55    1
    59    27    56    1
    60    27    57    1
    61    27    58    1
@<TRIPOS>MOLECULE
66553195
 58 61 0 0 0
SMALL
GASTEIGER

@<TRIPOS>ATOM
      1 S          -1.7500    2.1532   -0.1361 S.2     1  UNL1       -0.0926
      2 O           3.9947    1.8338   -0.6210 O.3     1  UNL1       -0.3733
      3 O          -3.2208   -1.1503   -1.5014 O.3     1  UNL1       -0.4941
      4 N           0.6441   -1.5069   -1.1894 N.ar    1  UNL1       -0.2593
      5 N          -1.6350    0.3940    2.2612 N.4     1  UNL1        0.2308
      6 C           3.9072    1.0510    0.5757 C.3     1  UNL1        0.0704
      7 C           1.4313    0.5057   -0.0051 C.3     1  UNL1        0.0224
      8 C           2.4527    0.9788    1.0713 C.3     1  UNL1       -0.0124
      9 C           4.8008    1.7382    1.6213 C.3     1  UNL1       -0.0237
     10 C           4.6231   -0.2974    0.4268 C.3     1  UNL1       -0.0237
     11 C           1.6850    1.3950   -1.2530 C.3     1  UNL1       -0.0181
     12 C           6.2268    1.3540    1.2306 C.3     1  UNL1       -0.0504
     13 C           6.1087    0.0588    0.4313 C.3     1  UNL1       -0.0504
     14 C          -0.0007    0.8133    0.4991 C.3     1  UNL1       -0.0013
     15 C           3.1485    1.4020   -1.6812 C.3     1  UNL1        0.0492
     16 C           1.4898   -1.0143   -0.2569 C.ar    1  UNL1        0.0478
     17 C          -0.2774    0.1027    1.8165 C.3     1  UNL1       -0.0325
     18 C           2.3845   -1.7877    0.4649 C.ar    1  UNL1       -0.0398
     19 C           2.4134   -3.1548    0.2132 C.ar    1  UNL1       -0.0586
     20 C           0.7007   -2.8401   -1.4068 C.ar    1  UNL1        0.0279
     21 C          -2.6118   -0.0704    1.2863 C.3     1  UNL1        0.0021
     22 C           1.5587   -3.6989   -0.7390 C.ar    1  UNL1       -0.0436
     23 C          -2.4125    0.5762   -0.0588 C.ar    1  UNL1        0.0756
     24 C          -2.6942    0.0718   -1.3094 C.ar    1  UNL1        0.1353
     25 C          -2.3616    0.9925   -2.3447 C.ar    1  UNL1       -0.0124
     26 C          -1.8384    2.1652   -1.8461 C.ar    1  UNL1       -0.0203
     27 C          -4.0717   -1.6771   -0.4736 C.3     1  UNL1        0.0788
     28 H          -1.7377    1.4015    2.3829 H       1  UNL1        0.2017
     29 H          -1.7999   -0.0900    3.1438 H       1  UNL1        0.2017
     30 H           2.1628    1.9541    1.4025 H       1  UNL1        0.0302
     31 H           2.4318    0.2502    1.8546 H       1  UNL1        0.0302
     32 H           4.5711    1.3839    2.6045 H       1  UNL1        0.0293
     33 H           4.6591    2.7986    1.6388 H       1  UNL1        0.0293
     34 H           4.3502   -0.7715   -0.4928 H       1  UNL1        0.0293
     35 H           4.3659   -0.9840    1.2061 H       1  UNL1        0.0293
     36 H           1.3901    2.3979   -1.0246 H       1  UNL1        0.0296
     37 H           1.1131    0.9894   -2.0613 H       1  UNL1        0.0296
     38 H           6.8229    1.1982    2.1054 H       1  UNL1        0.0266
     39 H           6.6984    2.1260    0.6592 H       1  UNL1        0.0266
     40 H           6.4591    0.2056   -0.5690 H       1  UNL1        0.0266
     41 H           6.6986   -0.7233    0.8618 H       1  UNL1        0.0266
     42 H          -0.7081    0.4828   -0.2325 H       1  UNL1        0.0326
     43 H          -0.0890    1.8682    0.6548 H       1  UNL1        0.0326
     44 H           3.4315    0.4119   -1.9720 H       1  UNL1        0.0560
     45 H           3.2580    2.0824   -2.4997 H       1  UNL1        0.0560
     46 H          -0.1674   -0.9529    1.6803 H       1  UNL1        0.0814
     47 H           0.4168    0.4462    2.5548 H       1  UNL1        0.0814
     48 H           3.0098   -1.3625    1.1673 H       1  UNL1        0.0636
     49 H           3.0665   -3.7633    0.7311 H       1  UNL1        0.0619
     50 H           0.0657   -3.2429   -2.1136 H       1  UNL1        0.0829
     51 H          -3.5936    0.1645    1.6411 H       1  UNL1        0.0873
     52 H          -2.4870   -1.1266    1.1687 H       1  UNL1        0.0873
     53 H           1.5633   -4.7108   -0.9420 H       1  UNL1        0.0633
     54 H          -2.4969    0.8030   -3.3502 H       1  UNL1        0.0659
     55 H          -1.5355    2.9575   -2.4338 H       1  UNL1        0.0694
     56 H          -4.4159   -2.6492   -0.7591 H       1  UNL1        0.0660
     57 H          -4.9108   -1.0272   -0.3374 H       1  UNL1        0.0660
     58 H          -3.5229   -1.7478    0.4423 H       1  UNL1        0.0660
@<TRIPOS>UNITY_ATOM_ATTR
5 1
charge 1
@<TRIPOS>BOND
     1     1    23   ar
     2     1    26   ar
     3     2     6    1
     4     2    15    1
     5     3    24    1
     6     3    27    1
     7     4    16   ar
     8     4    20   ar
     9     5    17    1
    10     5    21    1
    11     5    28    1
    12     5    29    1
    13     6     8    1
    14     6     9    1
    15     6    10    1
    16     7     8    1
    17     7    11    1
    18     7    14    1
    19     7    16    1
    20     8    30    1
    21     8    31    1
    22     9    12    1
    23     9    32    1
    24     9    33    1
    25    10    13    1
    26    10    34    1
    27    10    35    1
    28    11    15    1
    29    11    36    1
    30    11    37    1
    31    12    13    1
    32    12    38    1
    33    12    39    1
    34    13    40    1
    35    13    41    1
    36    14    17    1
    37    14    42    1
    38    14    43    1
    39    15    44    1
    40    15    45    1
    41    16    18   ar
    42    17    46    1
    43    17    47    1
    44    18    19   ar
    45    18    48    1
    46    19    22   ar
    47    19    49    1
    48    20    22   ar
    49    20    50    1
    50    21    23    1
    51    21    51    1
    52    21    52    1
    53    22    53    1
    54    23    24   ar
    55    24    25   ar
    56    25    26   ar
    57    25    54    1
    58    26    55    1
    59    27    56    1
    60    27    57    1
    61    27    58    1
@<TRIPOS>MOLECULE
66553195
 58 61 0 0 0
SMALL
GASTEIGER

@<TRIPOS>ATOM
      1 S          -1.0521   -0.4877    3.7170 S.2     1  UNL1       -0.0926
      2 O           3.9947    1.8338   -0.6210 O.3     1  UNL1       -0.3733
      3 O          -2.2589    0.0644    0.0867 O.3     1  UNL1       -0.4941
      4 N           1.8670   -1.7871    0.7861 N.ar    1  UNL1       -0.2593
      5 N          -1.5373    2.5691    1.2118 N.4     1  UNL1        0.2308
      6 C           3.9072    1.0510    0.5757 C.3     1  UNL1        0.0704
      7 C           1.4313    0.5057   -0.0051 C.3     1  UNL1        0.0224
      8 C           2.4527    0.9788    1.0713 C.3     1  UNL1       -0.0124
      9 C           4.8008    1.7382    1.6213 C.3     1  UNL1       -0.0237
     10 C           4.6231   -0.2974    0.4268 C.3     1  UNL1       -0.0237
     11 C           1.6850    1.3950   -1.2530 C.3     1  UNL1       -0.0181
     12 C           6.2268    1.3540    1.2306 C.3     1  UNL1       -0.0504
     13 C           6.1087    0.0588    0.4313 C.3     1  UNL1       -0.0504
     14 C          -0.0007    0.8133    0.4991 C.3     1  UNL1       -0.0013
     15 C           3.1485    1.4020   -1.6812 C.3     1  UNL1        0.0492
     16 C           1.4898   -1.0143   -0.2569 C.ar    1  UNL1        0.0478
     17 C          -0.1891    2.3072    0.7222 C.3     1  UNL1       -0.0325
     18 C           1.1606   -1.5078   -1.5090 C.ar    1  UNL1       -0.0398
     19 C           1.2221   -2.8832   -1.7031 C.ar    1  UNL1       -0.0586
     20 C           1.9154   -3.1192    0.5598 C.ar    1  UNL1        0.0279
     21 C          -1.7699    1.8924    2.4800 C.3     1  UNL1        0.0021
     22 C           1.6058   -3.7112   -0.6540 C.ar    1  UNL1       -0.0436
     23 C          -1.5985    0.4014    2.3595 C.ar    1  UNL1        0.0756
     24 C          -1.8248   -0.4083    1.2682 C.ar    1  UNL1        0.1353
     25 C          -1.5458   -1.7767    1.5504 C.ar    1  UNL1       -0.0124
     26 C          -1.1171   -1.9608    2.8466 C.ar    1  UNL1       -0.0203
     27 C          -3.0687   -0.8026   -0.7199 C.3     1  UNL1        0.0788
     28 H          -2.2130    2.2335    0.5254 H       1  UNL1        0.2017
     29 H          -1.6431    3.5736    1.3541 H       1  UNL1        0.2017
     30 H           2.1628    1.9541    1.4025 H       1  UNL1        0.0302
     31 H           2.4318    0.2502    1.8546 H       1  UNL1        0.0302
     32 H           4.5711    1.3839    2.6045 H       1  UNL1        0.0293
     33 H           4.6591    2.7986    1.6388 H       1  UNL1        0.0293
     34 H           4.3502   -0.7715   -0.4928 H       1  UNL1        0.0293
     35 H           4.3659   -0.9840    1.2061 H       1  UNL1        0.0293
     36 H           1.3901    2.3979   -1.0246 H       1  UNL1        0.0296
     37 H           1.1131    0.9894   -2.0613 H       1  UNL1        0.0296
     38 H           6.8229    1.1982    2.1054 H       1  UNL1        0.0266
     39 H           6.6984    2.1260    0.6592 H       1  UNL1        0.0266
     40 H           6.4591    0.2056   -0.5690 H       1  UNL1        0.0266
     41 H           6.6986   -0.7233    0.8618 H       1  UNL1        0.0266
     42 H          -0.1653    0.2978    1.4221 H       1  UNL1        0.0326
     43 H          -0.7011    0.4874   -0.2413 H       1  UNL1        0.0326
     44 H           3.4315    0.4119   -1.9720 H       1  UNL1        0.0560
     45 H           3.2580    2.0824   -2.4997 H       1  UNL1        0.0560
     46 H           0.5232    2.6510    1.4429 H       1  UNL1        0.0814
     47 H          -0.0440    2.8230   -0.2040 H       1  UNL1        0.0814
     48 H           0.8785   -0.8745   -2.2735 H       1  UNL1        0.0636
     49 H           0.9841   -3.2879   -2.6221 H       1  UNL1        0.0619
     50 H           2.2005   -3.7327    1.3391 H       1  UNL1        0.0829
     51 H          -2.7676    2.1010    2.8057 H       1  UNL1        0.0873
     52 H          -1.0509    2.2533    3.1855 H       1  UNL1        0.0873
     53 H           1.6582   -4.7347   -0.7756 H       1  UNL1        0.0633
     54 H          -1.6524   -2.5403    0.8644 H       1  UNL1        0.0659
     55 H          -0.8648   -2.8784    3.2459 H       1  UNL1        0.0694
     56 H          -3.3395   -0.2986   -1.6240 H       1  UNL1        0.0660
     57 H          -3.9539   -1.0678   -0.1804 H       1  UNL1        0.0660
     58 H          -2.5167   -1.6881   -0.9567 H       1  UNL1        0.0660
@<TRIPOS>UNITY_ATOM_ATTR
5 1
charge 1
@<TRIPOS>BOND
     1     1    23   ar
     2     1    26   ar
     3     2     6    1
     4     2    15    1
     5     3    24    1
     6     3    27    1
     7     4    16   ar
     8     4    20   ar
     9     5    17    1
    10     5    21    1
    11     5    28    1
    12     5    29    1
    13     6     8    1
    14     6     9    1
    15     6    10    1
    16     7     8    1
    17     7    11    1
    18     7    14    1
    19     7    16    1
    20     8    30    1
    21     8    31    1
    22     9    12    1
    23     9    32    1
    24     9    33    1
    25    10    13    1
    26    10    34    1
    27    10    35    1
    28    11    15    1
    29    11    36    1
    30    11    37    1
    31    12    13    1
    32    12    38    1
    33    12    39    1
    34    13    40    1
    35    13    41    1
    36    14    17    1
    37    14    42    1
    38    14    43    1
    39    15    44    1
    40    15    45    1
    41    16    18   ar
    42    17    46    1
    43    17    47    1
    44    18    19   ar
    45    18    48    1
    46    19    22   ar
    47    19    49    1
    48    20    22   ar
    49    20    50    1
    50    21    23    1
    51    21    51    1
    52    21    52    1
    53    22    53    1
    54    23    24   ar
    55    24    25   ar
    56    25    26   ar
    57    25    54    1
    58    26    55    1
    59    27    56    1
    60    27    57    1
    61    27    58    1
@<TRIPOS>MOLECULE
66553195
 58 61 0 0 0
SMALL
GASTEIGER

@<TRIPOS>ATOM
      1 S           0.2075    1.3705    4.2557 S.2     1  UNL1       -0.0926
      2 O           3.9947    1.8338   -0.6210 O.3     1  UNL1       -0.3733
      3 O          -1.7921   -1.0934    6.4627 O.3     1  UNL1       -0.4941
      4 N           1.1728   -1.4348   -1.5019 N.ar    1  UNL1       -0.2593
      5 N          -1.6350    0.3940    2.2612 N.4     1  UNL1        0.2308
      6 C           3.9072    1.0510    0.5757 C.3     1  UNL1        0.0704
      7 C           1.4313    0.5057   -0.0051 C.3     1  UNL1        0.0224
      8 C           2.4527    0.9788    1.0713 C.3     1  UNL1       -0.0124
      9 C           4.8008    1.7382    1.6213 C.3     1  UNL1       -0.0237
     10 C           4.6231   -0.2974    0.4268 C.3     1  UNL1       -0.0237
     11 C           1.6850    1.3950   -1.2530 C.3     1  UNL1       -0.0181
     12 C           6.2268    1.3540    1.2306 C.3     1  UNL1       -0.0504
     13 C           6.1087    0.0588    0.4313 C.3     1  UNL1       -0.0504
     14 C          -0.0007    0.8133    0.4991 C.3     1  UNL1       -0.0013
     15 C           3.1485    1.4020   -1.6812 C.3     1  UNL1        0.0492
     16 C           1.4898   -1.0143   -0.2569 C.ar    1  UNL1        0.0478
     17 C          -0.2774    0.1027    1.8165 C.3     1  UNL1       -0.0325
     18 C           1.8563   -1.8599    0.7777 C.ar    1  UNL1       -0.0398
     19 C           1.9006   -3.2250    0.5177 C.ar    1  UNL1       -0.0586
     20 C           1.2269   -2.7685   -1.7172 C.ar    1  UNL1        0.0279
     21 C          -1.9180   -0.2623    3.5298 C.3     1  UNL1        0.0021
     22 C           1.5815   -3.6961   -0.7510 C.ar    1  UNL1       -0.0436
     23 C          -0.9897    0.2020    4.6206 C.ar    1  UNL1        0.0756
     24 C          -0.9480   -0.1857    5.9420 C.ar    1  UNL1        0.1353
     25 C           0.0805    0.4856    6.6641 C.ar    1  UNL1       -0.0124
     26 C           0.7856    1.3608    5.8674 C.ar    1  UNL1       -0.0203
     27 C          -2.1387   -0.9616    7.8486 C.3     1  UNL1        0.0788
     28 H          -2.2953    0.0614    1.5586 H       1  UNL1        0.2017
     29 H          -1.7274    1.4019    2.3879 H       1  UNL1        0.2017
     30 H           2.1628    1.9541    1.4025 H       1  UNL1        0.0302
     31 H           2.4318    0.2502    1.8546 H       1  UNL1        0.0302
     32 H           4.5711    1.3839    2.6045 H       1  UNL1        0.0293
     33 H           4.6591    2.7986    1.6388 H       1  UNL1        0.0293
     34 H           4.3502   -0.7715   -0.4928 H       1  UNL1        0.0293
     35 H           4.3659   -0.9840    1.2061 H       1  UNL1        0.0293
     36 H           1.3901    2.3979   -1.0246 H       1  UNL1        0.0296
     37 H           1.1131    0.9894   -2.0613 H       1  UNL1        0.0296
     38 H           6.8229    1.1982    2.1054 H       1  UNL1        0.0266
     39 H           6.6984    2.1260    0.6592 H       1  UNL1        0.0266
     40 H           6.4591    0.2056   -0.5690 H       1  UNL1        0.0266
     41 H           6.6986   -0.7233    0.8618 H       1  UNL1        0.0266
     42 H          -0.7081    0.4828   -0.2325 H       1  UNL1        0.0326
     43 H          -0.0890    1.8682    0.6548 H       1  UNL1        0.0326
     44 H           3.4315    0.4119   -1.9720 H       1  UNL1        0.0560
     45 H           3.2580    2.0824   -2.4997 H       1  UNL1        0.0560
     46 H          -0.1674   -0.9529    1.6803 H       1  UNL1        0.0814
     47 H           0.4168    0.4462    2.5548 H       1  UNL1        0.0814
     48 H           2.0890   -1.4881    1.7119 H       1  UNL1        0.0636
     49 H           2.1692   -3.8860    1.2633 H       1  UNL1        0.0619
     50 H           0.9896   -3.1170   -2.6591 H       1  UNL1        0.0829
     51 H          -1.8047   -1.3191    3.4056 H       1  UNL1        0.0873
     52 H          -2.9182   -0.0131    3.8167 H       1  UNL1        0.0873
     53 H           1.6078   -4.7050   -0.9662 H       1  UNL1        0.0633
     54 H           0.2745    0.3340    7.6663 H       1  UNL1        0.0659
     55 H           1.5697    1.9420    6.2024 H       1  UNL1        0.0694
     56 H          -2.8121   -1.7462    8.1240 H       1  UNL1        0.0660
     57 H          -2.6095   -0.0143    8.0099 H       1  UNL1        0.0660
     58 H          -1.2529   -1.0259    8.4455 H       1  UNL1        0.0660
@<TRIPOS>UNITY_ATOM_ATTR
5 1
charge 1
@<TRIPOS>BOND
     1     1    23   ar
     2     1    26   ar
     3     2     6    1
     4     2    15    1
     5     3    24    1
     6     3    27    1
     7     4    16   ar
     8     4    20   ar
     9     5    17    1
    10     5    21    1
    11     5    28    1
    12     5    29    1
    13     6     8    1
    14     6     9    1
    15     6    10    1
    16     7     8    1
    17     7    11    1
    18     7    14    1
    19     7    16    1
    20     8    30    1
    21     8    31    1
    22     9    12    1
    23     9    32    1
    24     9    33    1
    25    10    13    1
    26    10    34    1
    27    10    35    1
    28    11    15    1
    29    11    36    1
    30    11    37    1
    31    12    13    1
    32    12    38    1
    33    12    39    1
    34    13    40    1
    35    13    41    1
    36    14    17    1
    37    14    42    1
    38    14    43    1
    39    15    44    1
    40    15    45    1
    41    16    18   ar
    42    17    46    1
    43    17    47    1
    44    18    19   ar
    45    18    48    1
    46    19    22   ar
    47    19    49    1
    48    20    22   ar
    49    20    50    1
    50    21    23    1
    51    21    51    1
    52    21    52    1
    53    22    53    1
    54    23    24   ar
    55    24    25   ar
    56    25    26   ar
    57    25    54    1
    58    26    55    1
    59    27    56    1
    60    27    57    1
    61    27    58    1
@<TRIPOS>MOLECULE
66553195
 58 61 0 0 0
SMALL
GASTEIGER

@<TRIPOS>ATOM
      1 S          -5.0003    1.2288    0.7227 S.2     1  UNL1       -0.0926
      2 O           3.9947    1.8338   -0.6210 O.3     1  UNL1       -0.3733
      3 O          -4.1252   -0.9722    3.7772 O.3     1  UNL1       -0.4941
      4 N           2.6736   -1.5136   -0.6773 N.ar    1  UNL1       -0.2593
      5 N          -1.6350    0.3940    2.2612 N.4     1  UNL1        0.2308
      6 C           3.9072    1.0510    0.5757 C.3     1  UNL1        0.0704
      7 C           1.4313    0.5057   -0.0051 C.3     1  UNL1        0.0224
      8 C           2.4527    0.9788    1.0713 C.3     1  UNL1       -0.0124
      9 C           4.8008    1.7382    1.6213 C.3     1  UNL1       -0.0237
     10 C           4.6231   -0.2974    0.4268 C.3     1  UNL1       -0.0237
     11 C           1.6850    1.3950   -1.2530 C.3     1  UNL1       -0.0181
     12 C           6.2268    1.3540    1.2306 C.3     1  UNL1       -0.0504
     13 C           6.1087    0.0588    0.4313 C.3     1  UNL1       -0.0504
     14 C          -0.0007    0.8133    0.4991 C.3     1  UNL1       -0.0013
     15 C           3.1485    1.4020   -1.6812 C.3     1  UNL1        0.0492
     16 C           1.4898   -1.0143   -0.2569 C.ar    1  UNL1        0.0478
     17 C          -0.2774    0.1027    1.8165 C.3     1  UNL1       -0.0325
     18 C           0.3554   -1.7812   -0.0456 C.ar    1  UNL1       -0.0398
     19 C           0.4416   -3.1489   -0.2805 C.ar    1  UNL1       -0.0586
     20 C           2.7193   -2.8472   -0.8953 C.ar    1  UNL1        0.0279
     21 C          -2.6118   -0.0704    1.2863 C.3     1  UNL1        0.0021
     22 C           1.6425   -3.6999   -0.7135 C.ar    1  UNL1       -0.0436
     23 C          -4.0220    0.2350    1.7163 C.ar    1  UNL1        0.0756
     24 C          -4.6894   -0.1822    2.8471 C.ar    1  UNL1        0.1353
     25 C          -6.0214    0.3209    2.8981 C.ar    1  UNL1       -0.0124
     26 C          -6.3215    1.1031    1.8046 C.ar    1  UNL1       -0.0203
     27 C          -2.7058   -0.8744    3.9611 C.3     1  UNL1        0.0788
     28 H          -1.7377    1.4015    2.3829 H       1  UNL1        0.2017
     29 H          -1.7999   -0.0900    3.1438 H       1  UNL1        0.2017
     30 H           2.1628    1.9541    1.4025 H       1  UNL1        0.0302
     31 H           2.4318    0.2502    1.8546 H       1  UNL1        0.0302
     32 H           4.5711    1.3839    2.6045 H       1  UNL1        0.0293
     33 H           4.6591    2.7986    1.6388 H       1  UNL1        0.0293
     34 H           4.3502   -0.7715   -0.4928 H       1  UNL1        0.0293
     35 H           4.3659   -0.9840    1.2061 H       1  UNL1        0.0293
     36 H           1.3901    2.3979   -1.0246 H       1  UNL1        0.0296
     37 H           1.1131    0.9894   -2.0613 H       1  UNL1        0.0296
     38 H           6.8229    1.1982    2.1054 H       1  UNL1        0.0266
     39 H           6.6984    2.1260    0.6592 H       1  UNL1        0.0266
     40 H           6.4591    0.2056   -0.5690 H       1  UNL1        0.0266
     41 H           6.6986   -0.7233    0.8618 H       1  UNL1        0.0266
     42 H          -0.7081    0.4828   -0.2325 H       1  UNL1        0.0326
     43 H          -0.0890    1.8682    0.6548 H       1  UNL1        0.0326
     44 H           3.4315    0.4119   -1.9720 H       1  UNL1        0.0560
     45 H           3.2580    2.0824   -2.4997 H       1  UNL1        0.0560
     46 H          -0.1674   -0.9529    1.6803 H       1  UNL1        0.0814
     47 H           0.4168    0.4462    2.5548 H       1  UNL1        0.0814
     48 H          -0.5258   -1.3509    0.2761 H       1  UNL1        0.0636
     49 H          -0.3824   -3.7527   -0.1341 H       1  UNL1        0.0619
     50 H           3.6111   -3.2550   -1.2169 H       1  UNL1        0.0829
     51 H          -2.5073   -1.1289    1.1689 H       1  UNL1        0.0873
     52 H          -2.4282    0.4396    0.3637 H       1  UNL1        0.0873
     53 H           1.7291   -4.7124   -0.8938 H       1  UNL1        0.0633
     54 H          -6.6837    0.1225    3.6644 H       1  UNL1        0.0659
     55 H          -7.2348    1.5596    1.6551 H       1  UNL1        0.0694
     56 H          -2.3977   -1.5553    4.7269 H       1  UNL1        0.0660
     57 H          -2.4514    0.1245    4.2484 H       1  UNL1        0.0660
     58 H          -2.2098   -1.1195    3.0453 H       1  UNL1        0.0660
@<TRIPOS>UNITY_ATOM_ATTR
5 1
charge 1
@<TRIPOS>BOND
     1     1    23   ar
     2     1    26   ar
     3     2     6    1
     4     2    15    1
     5     3    24    1
     6     3    27    1
     7     4    16   ar
     8     4    20   ar
     9     5    17    1
    10     5    21    1
    11     5    28    1
    12     5    29    1
    13     6     8    1
    14     6     9    1
    15     6    10    1
    16     7     8    1
    17     7    11    1
    18     7    14    1
    19     7    16    1
    20     8    30    1
    21     8    31    1
    22     9    12    1
    23     9    32    1
    24     9    33    1
    25    10    13    1
    26    10    34    1
    27    10    35    1
    28    11    15    1
    29    11    36    1
    30    11    37    1
    31    12    13    1
    32    12    38    1
    33    12    39    1
    34    13    40    1
    35    13    41    1
    36    14    17    1
    37    14    42    1
    38    14    43    1
    39    15    44    1
    40    15    45    1
    41    16    18   ar
    42    17    46    1
    43    17    47    1
    44    18    19   ar
    45    18    48    1
    46    19    22   ar
    47    19    49    1
    48    20    22   ar
    49    20    50    1
    50    21    23    1
    51    21    51    1
    52    21    52    1
    53    22    53    1
    54    23    24   ar
    55    24    25   ar
    56    25    26   ar
    57    25    54    1
    58    26    55    1
    59    27    56    1
    60    27    57    1
    61    27    58    1
@<TRIPOS>MOLECULE
66553195
 58 61 0 0 0
SMALL
GASTEIGER

@<TRIPOS>ATOM
      1 S          -1.1444    3.9202   -1.3073 S.2     1  UNL1       -0.0926
      2 O           3.9947    1.8338   -0.6210 O.3     1  UNL1       -0.3733
      3 O          -4.1723    1.7262   -2.2862 O.3     1  UNL1       -0.4941
      4 N           1.8670   -1.7871    0.7861 N.ar    1  UNL1       -0.2593
      5 N          -1.5373    2.5691    1.2118 N.4     1  UNL1        0.2308
      6 C           3.9072    1.0510    0.5757 C.3     1  UNL1        0.0704
      7 C           1.4313    0.5057   -0.0051 C.3     1  UNL1        0.0224
      8 C           2.4527    0.9788    1.0713 C.3     1  UNL1       -0.0124
      9 C           4.8008    1.7382    1.6213 C.3     1  UNL1       -0.0237
     10 C           4.6231   -0.2974    0.4268 C.3     1  UNL1       -0.0237
     11 C           1.6850    1.3950   -1.2530 C.3     1  UNL1       -0.0181
     12 C           6.2268    1.3540    1.2306 C.3     1  UNL1       -0.0504
     13 C           6.1087    0.0588    0.4313 C.3     1  UNL1       -0.0504
     14 C          -0.0007    0.8133    0.4991 C.3     1  UNL1       -0.0013
     15 C           3.1485    1.4020   -1.6812 C.3     1  UNL1        0.0492
     16 C           1.4898   -1.0143   -0.2569 C.ar    1  UNL1        0.0478
     17 C          -0.1891    2.3072    0.7222 C.3     1  UNL1       -0.0325
     18 C           1.1606   -1.5078   -1.5090 C.ar    1  UNL1       -0.0398
     19 C           1.2221   -2.8832   -1.7031 C.ar    1  UNL1       -0.0586
     20 C           1.9154   -3.1192    0.5598 C.ar    1  UNL1        0.0279
     21 C          -2.5353    2.0995    0.2612 C.3     1  UNL1        0.0021
     22 C           1.6058   -3.7112   -0.6540 C.ar    1  UNL1       -0.0436
     23 C          -2.3886    2.7659   -1.0809 C.ar    1  UNL1        0.0756
     24 C          -3.1390    2.5840   -2.2219 C.ar    1  UNL1        0.1353
     25 C          -2.6863    3.4034   -3.2959 C.ar    1  UNL1       -0.0124
     26 C          -1.6073    4.1800   -2.9353 C.ar    1  UNL1       -0.0203
     27 C          -4.9074    1.4783   -1.0795 C.3     1  UNL1        0.0788
     28 H          -1.6536    3.5731    1.3494 H       1  UNL1        0.2017
     29 H          -1.6666    2.0715    2.0928 H       1  UNL1        0.2017
     30 H           2.1628    1.9541    1.4025 H       1  UNL1        0.0302
     31 H           2.4318    0.2502    1.8546 H       1  UNL1        0.0302
     32 H           4.5711    1.3839    2.6045 H       1  UNL1        0.0293
     33 H           4.6591    2.7986    1.6388 H       1  UNL1        0.0293
     34 H           4.3502   -0.7715   -0.4928 H       1  UNL1        0.0293
     35 H           4.3659   -0.9840    1.2061 H       1  UNL1        0.0293
     36 H           1.3901    2.3979   -1.0246 H       1  UNL1        0.0296
     37 H           1.1131    0.9894   -2.0613 H       1  UNL1        0.0296
     38 H           6.8229    1.1982    2.1054 H       1  UNL1        0.0266
     39 H           6.6984    2.1260    0.6592 H       1  UNL1        0.0266
     40 H           6.4591    0.2056   -0.5690 H       1  UNL1        0.0266
     41 H           6.6986   -0.7233    0.8618 H       1  UNL1        0.0266
     42 H          -0.1653    0.2978    1.4221 H       1  UNL1        0.0326
     43 H          -0.7011    0.4874   -0.2413 H       1  UNL1        0.0326
     44 H           3.4315    0.4119   -1.9720 H       1  UNL1        0.0560
     45 H           3.2580    2.0824   -2.4997 H       1  UNL1        0.0560
     46 H           0.5232    2.6510    1.4429 H       1  UNL1        0.0814
     47 H          -0.0440    2.8230   -0.2040 H       1  UNL1        0.0814
     48 H           0.8785   -0.8745   -2.2735 H       1  UNL1        0.0636
     49 H           0.9841   -3.2879   -2.6221 H       1  UNL1        0.0619
     50 H           2.2005   -3.7327    1.3391 H       1  UNL1        0.0829
     51 H          -3.5097    2.3126    0.6488 H       1  UNL1        0.0873
     52 H          -2.3960    1.0472    0.1264 H       1  UNL1        0.0873
     53 H           1.6582   -4.7347   -0.7756 H       1  UNL1        0.0633
     54 H          -3.1163    3.4137   -4.2341 H       1  UNL1        0.0659
     55 H          -1.1337    4.8406   -3.5712 H       1  UNL1        0.0694
     56 H          -5.6946    0.7814   -1.2783 H       1  UNL1        0.0660
     57 H          -5.3253    2.3960   -0.7215 H       1  UNL1        0.0660
     58 H          -4.2505    1.0725   -0.3387 H       1  UNL1        0.0660
@<TRIPOS>UNITY_ATOM_ATTR
5 1
charge 1
@<TRIPOS>BOND
     1     1    23   ar
     2     1    26   ar
     3     2     6    1
     4     2    15    1
     5     3    24    1
     6     3    27    1
     7     4    16   ar
     8     4    20   ar
     9     5    17    1
    10     5    21    1
    11     5    28    1
    12     5    29    1
    13     6     8    1
    14     6     9    1
    15     6    10    1
    16     7     8    1
    17     7    11    1
    18     7    14    1
    19     7    16    1
    20     8    30    1
    21     8    31    1
    22     9    12    1
    23     9    32    1
    24     9    33    1
    25    10    13    1
    26    10    34    1
    27    10    35    1
    28    11    15    1
    29    11    36    1
    30    11    37    1
    31    12    13    1
    32    12    38    1
    33    12    39    1
    34    13    40    1
    35    13    41    1
    36    14    17    1
    37    14    42    1
    38    14    43    1
    39    15    44    1
    40    15    45    1
    41    16    18   ar
    42    17    46    1
    43    17    47    1
    44    18    19   ar
    45    18    48    1
    46    19    22   ar
    47    19    49    1
    48    20    22   ar
    49    20    50    1
    50    21    23    1
    51    21    51    1
    52    21    52    1
    53    22    53    1
    54    23    24   ar
    55    24    25   ar
    56    25    26   ar
    57    25    54    1
    58    26    55    1
    59    27    56    1
    60    27    57    1
    61    27    58    1
@<TRIPOS>MOLECULE
66553195
 58 61 0 0 0
SMALL
GASTEIGER

@<TRIPOS>ATOM
      1 S          -3.0631   -2.8548    2.8672 S.2     1  UNL1       -0.0926
      2 O           3.9947    1.8338   -0.6210 O.3     1  UNL1       -0.3733
      3 O          -1.4846    0.1482    4.7194 O.3     1  UNL1       -0.4941
      4 N           0.6441   -1.5069   -1.1894 N.ar    1  UNL1       -0.2593
      5 N          -0.1319   -1.3376    1.6429 N.4     1  UNL1        0.2308
      6 C           3.9072    1.0510    0.5757 C.3     1  UNL1        0.0704
      7 C           1.4313    0.5057   -0.0051 C.3     1  UNL1        0.0224
      8 C           2.4527    0.9788    1.0713 C.3     1  UNL1       -0.0124
      9 C           4.8008    1.7382    1.6213 C.3     1  UNL1       -0.0237
     10 C           4.6231   -0.2974    0.4268 C.3     1  UNL1       -0.0237
     11 C           1.6850    1.3950   -1.2530 C.3     1  UNL1       -0.0181
     12 C           6.2268    1.3540    1.2306 C.3     1  UNL1       -0.0504
     13 C           6.1087    0.0588    0.4313 C.3     1  UNL1       -0.0504
     14 C          -0.0007    0.8133    0.4991 C.3     1  UNL1       -0.0013
     15 C           3.1485    1.4020   -1.6812 C.3     1  UNL1        0.0492
     16 C           1.4898   -1.0143   -0.2569 C.ar    1  UNL1        0.0478
     17 C          -0.2774    0.1027    1.8165 C.3     1  UNL1       -0.0325
     18 C           2.3845   -1.7877    0.4649 C.ar    1  UNL1       -0.0398
     19 C           2.4134   -3.1548    0.2132 C.ar    1  UNL1       -0.0586
     20 C           0.7007   -2.8401   -1.4068 C.ar    1  UNL1        0.0279
     21 C          -0.4083   -2.0412    2.8874 C.3     1  UNL1        0.0021
     22 C           1.5587   -3.6989   -0.7390 C.ar    1  UNL1       -0.0436
     23 C          -1.8137   -1.7971    3.3693 C.ar    1  UNL1        0.0756
     24 C          -2.2814   -0.8009    4.1980 C.ar    1  UNL1        0.1353
     25 C          -3.6842   -0.9076    4.4236 C.ar    1  UNL1       -0.0124
     26 C          -4.2351   -1.9811    3.7589 C.ar    1  UNL1       -0.0203
     27 C          -2.0873    1.1224    5.5830 C.3     1  UNL1        0.0788
     28 H           0.8224   -1.5438    1.3475 H       1  UNL1        0.2017
     29 H          -0.7985   -1.6499    0.9369 H       1  UNL1        0.2017
     30 H           2.1628    1.9541    1.4025 H       1  UNL1        0.0302
     31 H           2.4318    0.2502    1.8546 H       1  UNL1        0.0302
     32 H           4.5711    1.3839    2.6045 H       1  UNL1        0.0293
     33 H           4.6591    2.7986    1.6388 H       1  UNL1        0.0293
     34 H           4.3502   -0.7715   -0.4928 H       1  UNL1        0.0293
     35 H           4.3659   -0.9840    1.2061 H       1  UNL1        0.0293
     36 H           1.3901    2.3979   -1.0246 H       1  UNL1        0.0296
     37 H           1.1131    0.9894   -2.0613 H       1  UNL1        0.0296
     38 H           6.8229    1.1982    2.1054 H       1  UNL1        0.0266
     39 H           6.6984    2.1260    0.6592 H       1  UNL1        0.0266
     40 H           6.4591    0.2056   -0.5690 H       1  UNL1        0.0266
     41 H           6.6986   -0.7233    0.8618 H       1  UNL1        0.0266
     42 H          -0.7081    0.4828   -0.2325 H       1  UNL1        0.0326
     43 H          -0.0890    1.8682    0.6548 H       1  UNL1        0.0326
     44 H           3.4315    0.4119   -1.9720 H       1  UNL1        0.0560
     45 H           3.2580    2.0824   -2.4997 H       1  UNL1        0.0560
     46 H           0.4171    0.4430    2.5560 H       1  UNL1        0.0814
     47 H          -1.2765    0.3206    2.1315 H       1  UNL1        0.0814
     48 H           3.0098   -1.3625    1.1673 H       1  UNL1        0.0636
     49 H           3.0665   -3.7633    0.7311 H       1  UNL1        0.0619
     50 H           0.0657   -3.2429   -2.1136 H       1  UNL1        0.0829
     51 H           0.2778   -1.7033    3.6357 H       1  UNL1        0.0873
     52 H          -0.2964   -3.0901    2.7076 H       1  UNL1        0.0873
     53 H           1.5633   -4.7108   -0.9420 H       1  UNL1        0.0633
     54 H          -4.2241   -0.2570    5.0154 H       1  UNL1        0.0659
     55 H          -5.2361   -2.2296    3.7943 H       1  UNL1        0.0694
     56 H          -1.3404    1.8098    5.9213 H       1  UNL1        0.0660
     57 H          -2.5262    0.6294    6.4252 H       1  UNL1        0.0660
     58 H          -2.8449    1.6545    5.0465 H       1  UNL1        0.0660
@<TRIPOS>UNITY_ATOM_ATTR
5 1
charge 1
@<TRIPOS>BOND
     1     1    23   ar
     2     1    26   ar
     3     2     6    1
     4     2    15    1
     5     3    24    1
     6     3    27    1
     7     4    16   ar
     8     4    20   ar
     9     5    17    1
    10     5    21    1
    11     5    28    1
    12     5    29    1
    13     6     8    1
    14     6     9    1
    15     6    10    1
    16     7     8    1
    17     7    11    1
    18     7    14    1
    19     7    16    1
    20     8    30    1
    21     8    31    1
    22     9    12    1
    23     9    32    1
    24     9    33    1
    25    10    13    1
    26    10    34    1
    27    10    35    1
    28    11    15    1
    29    11    36    1
    30    11    37    1
    31    12    13    1
    32    12    38    1
    33    12    39    1
    34    13    40    1
    35    13    41    1
    36    14    17    1
    37    14    42    1
    38    14    43    1
    39    15    44    1
    40    15    45    1
    41    16    18   ar
    42    17    46    1
    43    17    47    1
    44    18    19   ar
    45    18    48    1
    46    19    22   ar
    47    19    49    1
    48    20    22   ar
    49    20    50    1
    50    21    23    1
    51    21    51    1
    52    21    52    1
    53    22    53    1
    54    23    24   ar
    55    24    25   ar
    56    25    26   ar
    57    25    54    1
    58    26    55    1
    59    27    56    1
    60    27    57    1
    61    27    58    1
@<TRIPOS>MOLECULE
66553195
 58 61 0 0 0
SMALL
GASTEIGER

@<TRIPOS>ATOM
      1 S           1.9933   -2.4460    4.2212 S.2     1  UNL1       -0.0926
      2 O           3.9947    1.8338   -0.6210 O.3     1  UNL1       -0.3733
      3 O          -0.7255    0.2107    4.9212 O.3     1  UNL1       -0.4941
      4 N           2.3917   -1.7141    0.4672 N.ar    1  UNL1       -0.2593
      5 N          -0.1319   -1.3376    1.6429 N.4     1  UNL1        0.2308
      6 C           3.9072    1.0510    0.5757 C.3     1  UNL1        0.0704
      7 C           1.4313    0.5057   -0.0051 C.3     1  UNL1        0.0224
      8 C           2.4527    0.9788    1.0713 C.3     1  UNL1       -0.0124
      9 C           4.8008    1.7382    1.6213 C.3     1  UNL1       -0.0237
     10 C           4.6231   -0.2974    0.4268 C.3     1  UNL1       -0.0237
     11 C           1.6850    1.3950   -1.2530 C.3     1  UNL1       -0.0181
     12 C           6.2268    1.3540    1.2306 C.3     1  UNL1       -0.0504
     13 C           6.1087    0.0588    0.4313 C.3     1  UNL1       -0.0504
     14 C          -0.0007    0.8133    0.4991 C.3     1  UNL1       -0.0013
     15 C           3.1485    1.4020   -1.6812 C.3     1  UNL1        0.0492
     16 C           1.4898   -1.0143   -0.2569 C.ar    1  UNL1        0.0478
     17 C          -0.2774    0.1027    1.8165 C.3     1  UNL1       -0.0325
     18 C           0.6363   -1.5809   -1.1898 C.ar    1  UNL1       -0.0398
     19 C           0.7132   -2.9543   -1.3924 C.ar    1  UNL1       -0.0586
     20 C           2.4377   -3.0466    0.2430 C.ar    1  UNL1        0.0279
     21 C          -0.4083   -2.0412    2.8874 C.3     1  UNL1        0.0021
     22 C           1.6284   -3.7083   -0.6662 C.ar    1  UNL1       -0.0436
     23 C           0.5172   -1.6086    3.9935 C.ar    1  UNL1        0.0756
     24 C           0.3564   -0.5872    4.9038 C.ar    1  UNL1        0.1353
     25 C           1.4598   -0.4910    5.8000 C.ar    1  UNL1       -0.0124
     26 C           2.4218   -1.4422    5.5406 C.ar    1  UNL1       -0.0203
     27 C          -1.3962    0.4496    3.6757 C.3     1  UNL1        0.0788
     28 H           0.8224   -1.5438    1.3475 H       1  UNL1        0.2017
     29 H          -0.7985   -1.6499    0.9369 H       1  UNL1        0.2017
     30 H           2.1628    1.9541    1.4025 H       1  UNL1        0.0302
     31 H           2.4318    0.2502    1.8546 H       1  UNL1        0.0302
     32 H           4.5711    1.3839    2.6045 H       1  UNL1        0.0293
     33 H           4.6591    2.7986    1.6388 H       1  UNL1        0.0293
     34 H           4.3502   -0.7715   -0.4928 H       1  UNL1        0.0293
     35 H           4.3659   -0.9840    1.2061 H       1  UNL1        0.0293
     36 H           1.3901    2.3979   -1.0246 H       1  UNL1        0.0296
     37 H           1.1131    0.9894   -2.0613 H       1  UNL1        0.0296
     38 H           6.8229    1.1982    2.1054 H       1  UNL1        0.0266
     39 H           6.6984    2.1260    0.6592 H       1  UNL1        0.0266
     40 H           6.4591    0.2056   -0.5690 H       1  UNL1        0.0266
     41 H           6.6986   -0.7233    0.8618 H       1  UNL1        0.0266
     42 H          -0.7081    0.4828   -0.2325 H       1  UNL1        0.0326
     43 H          -0.0890    1.8682    0.6548 H       1  UNL1        0.0326
     44 H           3.4315    0.4119   -1.9720 H       1  UNL1        0.0560
     45 H           3.2580    2.0824   -2.4997 H       1  UNL1        0.0560
     46 H           0.4171    0.4430    2.5560 H       1  UNL1        0.0814
     47 H          -1.2765    0.3206    2.1315 H       1  UNL1        0.0814
     48 H          -0.0353   -1.0018   -1.7176 H       1  UNL1        0.0636
     49 H           0.0936   -3.4122   -2.0789 H       1  UNL1        0.0619
     50 H           3.1175   -3.6052    0.7823 H       1  UNL1        0.0829
     51 H          -0.2865   -3.0919    2.7253 H       1  UNL1        0.0873
     52 H          -1.4102   -1.8106    3.1836 H       1  UNL1        0.0873
     53 H           1.7024   -4.7289   -0.8004 H       1  UNL1        0.0633
     54 H           1.5300    0.2092    6.5550 H       1  UNL1        0.0659
     55 H           3.2975   -1.5386    6.0781 H       1  UNL1        0.0694
     56 H          -2.2324    1.0969    3.8393 H       1  UNL1        0.0660
     57 H          -1.7385   -0.4800    3.2709 H       1  UNL1        0.0660
     58 H          -0.7180    0.9099    2.9879 H       1  UNL1        0.0660
@<TRIPOS>UNITY_ATOM_ATTR
5 1
charge 1
@<TRIPOS>BOND
     1     1    23   ar
     2     1    26   ar
     3     2     6    1
     4     2    15    1
     5     3    24    1
     6     3    27    1
     7     4    16   ar
     8     4    20   ar
     9     5    17    1
    10     5    21    1
    11     5    28    1
    12     5    29    1
    13     6     8    1
    14     6     9    1
    15     6    10    1
    16     7     8    1
    17     7    11    1
    18     7    14    1
    19     7    16    1
    20     8    30    1
    21     8    31    1
    22     9    12    1
    23     9    32    1
    24     9    33    1
    25    10    13    1
    26    10    34    1
    27    10    35    1
    28    11    15    1
    29    11    36    1
    30    11    37    1
    31    12    13    1
    32    12    38    1
    33    12    39    1
    34    13    40    1
    35    13    41    1
    36    14    17    1
    37    14    42    1
    38    14    43    1
    39    15    44    1
    40    15    45    1
    41    16    18   ar
    42    17    46    1
    43    17    47    1
    44    18    19   ar
    45    18    48    1
    46    19    22   ar
    47    19    49    1
    48    20    22   ar
    49    20    50    1
    50    21    23    1
    51    21    51    1
    52    21    52    1
    53    22    53    1
    54    23    24   ar
    55    24    25   ar
    56    25    26   ar
    57    25    54    1
    58    26    55    1
    59    27    56    1
    60    27    57    1
    61    27    58    1
@<TRIPOS>MOLECULE
66553195
 58 61 0 0 0
SMALL
GASTEIGER

@<TRIPOS>ATOM
      1 S          -4.2888   -2.2849   -0.1753 S.2     1  UNL1       -0.0926
      2 O           3.9947    1.8338   -0.6210 O.3     1  UNL1       -0.3733
      3 O          -1.8114   -1.3976   -3.0064 O.3     1  UNL1       -0.4941
      4 N           0.6441   -1.5069   -1.1894 N.ar    1  UNL1       -0.2593
      5 N          -2.3798    0.6689   -0.0216 N.4     1  UNL1        0.2308
      6 C           3.9072    1.0510    0.5757 C.3     1  UNL1        0.0704
      7 C           1.4313    0.5057   -0.0051 C.3     1  UNL1        0.0224
      8 C           2.4527    0.9788    1.0713 C.3     1  UNL1       -0.0124
      9 C           4.8008    1.7382    1.6213 C.3     1  UNL1       -0.0237
     10 C           4.6231   -0.2974    0.4268 C.3     1  UNL1       -0.0237
     11 C           1.6850    1.3950   -1.2530 C.3     1  UNL1       -0.0181
     12 C           6.2268    1.3540    1.2306 C.3     1  UNL1       -0.0504
     13 C           6.1087    0.0588    0.4313 C.3     1  UNL1       -0.0504
     14 C          -0.0007    0.8133    0.4991 C.3     1  UNL1       -0.0013
     15 C           3.1485    1.4020   -1.6812 C.3     1  UNL1        0.0492
     16 C           1.4898   -1.0143   -0.2569 C.ar    1  UNL1        0.0478
     17 C          -1.0428    0.3538   -0.5107 C.3     1  UNL1       -0.0325
     18 C           2.3845   -1.7877    0.4649 C.ar    1  UNL1       -0.0398
     19 C           2.4134   -3.1548    0.2132 C.ar    1  UNL1       -0.0586
     20 C           0.7007   -2.8401   -1.4068 C.ar    1  UNL1        0.0279
     21 C          -3.3961    0.2233   -0.9644 C.3     1  UNL1        0.0021
     22 C           1.5587   -3.6989   -0.7390 C.ar    1  UNL1       -0.0436
     23 C          -3.3471   -1.2662   -1.1790 C.ar    1  UNL1        0.0756
     24 C          -2.6239   -1.9813   -2.1082 C.ar    1  UNL1        0.1353
     25 C          -2.8460   -3.3840   -1.9945 C.ar    1  UNL1       -0.0124
     26 C          -3.7304   -3.6877   -0.9829 C.ar    1  UNL1       -0.0203
     27 C          -1.1243   -2.2491   -3.9343 C.3     1  UNL1        0.0788
     28 H          -2.4602    1.6780    0.1040 H       1  UNL1        0.2017
     29 H          -2.5244    0.1869    0.8656 H       1  UNL1        0.2017
     30 H           2.1628    1.9541    1.4025 H       1  UNL1        0.0302
     31 H           2.4318    0.2502    1.8546 H       1  UNL1        0.0302
     32 H           4.5711    1.3839    2.6045 H       1  UNL1        0.0293
     33 H           4.6591    2.7986    1.6388 H       1  UNL1        0.0293
     34 H           4.3502   -0.7715   -0.4928 H       1  UNL1        0.0293
     35 H           4.3659   -0.9840    1.2061 H       1  UNL1        0.0293
     36 H           1.3901    2.3979   -1.0246 H       1  UNL1        0.0296
     37 H           1.1131    0.9894   -2.0613 H       1  UNL1        0.0296
     38 H           6.8229    1.1982    2.1054 H       1  UNL1        0.0266
     39 H           6.6984    2.1260    0.6592 H       1  UNL1        0.0266
     40 H           6.4591    0.2056   -0.5690 H       1  UNL1        0.0266
     41 H           6.6986   -0.7233    0.8618 H       1  UNL1        0.0266
     42 H          -0.1000    1.8680    0.6496 H       1  UNL1        0.0326
     43 H          -0.1599    0.2879    1.4175 H       1  UNL1        0.0326
     44 H           3.4315    0.4119   -1.9720 H       1  UNL1        0.0560
     45 H           3.2580    2.0824   -2.4997 H       1  UNL1        0.0560
     46 H          -0.8788    0.8537   -1.4425 H       1  UNL1        0.0814
     47 H          -0.9581   -0.7040   -0.6482 H       1  UNL1        0.0814
     48 H           3.0098   -1.3625    1.1673 H       1  UNL1        0.0636
     49 H           3.0665   -3.7633    0.7311 H       1  UNL1        0.0619
     50 H           0.0657   -3.2429   -2.1136 H       1  UNL1        0.0829
     51 H          -3.2370    0.7135   -1.9022 H       1  UNL1        0.0873
     52 H          -4.3554    0.4690   -0.5590 H       1  UNL1        0.0873
     53 H           1.5633   -4.7108   -0.9420 H       1  UNL1        0.0633
     54 H          -2.3969   -4.0898   -2.5989 H       1  UNL1        0.0659
     55 H          -4.0220   -4.6474   -0.7403 H       1  UNL1        0.0694
     56 H          -0.5182   -1.6529   -4.5840 H       1  UNL1        0.0660
     57 H          -1.8390   -2.7948   -4.5142 H       1  UNL1        0.0660
     58 H          -0.5031   -2.9347   -3.3966 H       1  UNL1        0.0660
@<TRIPOS>UNITY_ATOM_ATTR
5 1
charge 1
@<TRIPOS>BOND
     1     1    23   ar
     2     1    26   ar
     3     2     6    1
     4     2    15    1
     5     3    24    1
     6     3    27    1
     7     4    16   ar
     8     4    20   ar
     9     5    17    1
    10     5    21    1
    11     5    28    1
    12     5    29    1
    13     6     8    1
    14     6     9    1
    15     6    10    1
    16     7     8    1
    17     7    11    1
    18     7    14    1
    19     7    16    1
    20     8    30    1
    21     8    31    1
    22     9    12    1
    23     9    32    1
    24     9    33    1
    25    10    13    1
    26    10    34    1
    27    10    35    1
    28    11    15    1
    29    11    36    1
    30    11    37    1
    31    12    13    1
    32    12    38    1
    33    12    39    1
    34    13    40    1
    35    13    41    1
    36    14    17    1
    37    14    42    1
    38    14    43    1
    39    15    44    1
    40    15    45    1
    41    16    18   ar
    42    17    46    1
    43    17    47    1
    44    18    19   ar
    45    18    48    1
    46    19    22   ar
    47    19    49    1
    48    20    22   ar
    49    20    50    1
    50    21    23    1
    51    21    51    1
    52    21    52    1
    53    22    53    1
    54    23    24   ar
    55    24    25   ar
    56    25    26   ar
    57    25    54    1
    58    26    55    1
    59    27    56    1
    60    27    57    1
    61    27    58    1
@<TRIPOS>MOLECULE
66553195
 58 61 0 0 0
SMALL
GASTEIGER

@<TRIPOS>ATOM
      1 S          -0.9969    4.2683    0.9724 S.2     1  UNL1       -0.0926
      2 O           3.9947    1.8338   -0.6210 O.3     1  UNL1       -0.3733
      3 O          -1.2339    0.7586    2.5743 O.3     1  UNL1       -0.4941
      4 N           1.1728   -1.4348   -1.5019 N.ar    1  UNL1       -0.2593
      5 N          -2.3798    0.6689   -0.0216 N.4     1  UNL1        0.2308
      6 C           3.9072    1.0510    0.5757 C.3     1  UNL1        0.0704
      7 C           1.4313    0.5057   -0.0051 C.3     1  UNL1        0.0224
      8 C           2.4527    0.9788    1.0713 C.3     1  UNL1       -0.0124
      9 C           4.8008    1.7382    1.6213 C.3     1  UNL1       -0.0237
     10 C           4.6231   -0.2974    0.4268 C.3     1  UNL1       -0.0237
     11 C           1.6850    1.3950   -1.2530 C.3     1  UNL1       -0.0181
     12 C           6.2268    1.3540    1.2306 C.3     1  UNL1       -0.0504
     13 C           6.1087    0.0588    0.4313 C.3     1  UNL1       -0.0504
     14 C          -0.0007    0.8133    0.4991 C.3     1  UNL1       -0.0013
     15 C           3.1485    1.4020   -1.6812 C.3     1  UNL1        0.0492
     16 C           1.4898   -1.0143   -0.2569 C.ar    1  UNL1        0.0478
     17 C          -1.0428    0.3538   -0.5107 C.3     1  UNL1       -0.0325
     18 C           1.8563   -1.8599    0.7777 C.ar    1  UNL1       -0.0398
     19 C           1.9006   -3.2250    0.5177 C.ar    1  UNL1       -0.0586
     20 C           1.2269   -2.7685   -1.7172 C.ar    1  UNL1        0.0279
     21 C          -2.5388    2.1040    0.1669 C.3     1  UNL1        0.0021
     22 C           1.5815   -3.6961   -0.7510 C.ar    1  UNL1       -0.0436
     23 C          -1.5403    2.6543    1.1504 C.ar    1  UNL1        0.0756
     24 C          -0.9611    2.0302    2.2334 C.ar    1  UNL1        0.1353
     25 C          -0.0593    2.8886    2.9261 C.ar    1  UNL1       -0.0124
     26 C           0.0164    4.1360    2.3463 C.ar    1  UNL1       -0.0203
     27 C          -1.1586    0.4116    3.9643 C.3     1  UNL1        0.0788
     28 H          -2.5293    0.1964    0.8698 H       1  UNL1        0.2017
     29 H          -3.0620    0.3531   -0.7110 H       1  UNL1        0.2017
     30 H           2.1628    1.9541    1.4025 H       1  UNL1        0.0302
     31 H           2.4318    0.2502    1.8546 H       1  UNL1        0.0302
     32 H           4.5711    1.3839    2.6045 H       1  UNL1        0.0293
     33 H           4.6591    2.7986    1.6388 H       1  UNL1        0.0293
     34 H           4.3502   -0.7715   -0.4928 H       1  UNL1        0.0293
     35 H           4.3659   -0.9840    1.2061 H       1  UNL1        0.0293
     36 H           1.3901    2.3979   -1.0246 H       1  UNL1        0.0296
     37 H           1.1131    0.9894   -2.0613 H       1  UNL1        0.0296
     38 H           6.8229    1.1982    2.1054 H       1  UNL1        0.0266
     39 H           6.6984    2.1260    0.6592 H       1  UNL1        0.0266
     40 H           6.4591    0.2056   -0.5690 H       1  UNL1        0.0266
     41 H           6.6986   -0.7233    0.8618 H       1  UNL1        0.0266
     42 H          -0.1000    1.8680    0.6496 H       1  UNL1        0.0326
     43 H          -0.1599    0.2879    1.4175 H       1  UNL1        0.0326
     44 H           3.4315    0.4119   -1.9720 H       1  UNL1        0.0560
     45 H           3.2580    2.0824   -2.4997 H       1  UNL1        0.0560
     46 H          -0.8788    0.8537   -1.4425 H       1  UNL1        0.0814
     47 H          -0.9581   -0.7040   -0.6482 H       1  UNL1        0.0814
     48 H           2.0890   -1.4881    1.7119 H       1  UNL1        0.0636
     49 H           2.1692   -3.8860    1.2633 H       1  UNL1        0.0619
     50 H           0.9896   -3.1170   -2.6591 H       1  UNL1        0.0829
     51 H          -3.5262    2.2979    0.5310 H       1  UNL1        0.0873
     52 H          -2.3748    2.5828   -0.7758 H       1  UNL1        0.0873
     53 H           1.6078   -4.7050   -0.9662 H       1  UNL1        0.0633
     54 H           0.4745    2.6088    3.7638 H       1  UNL1        0.0659
     55 H           0.6134    4.9005    2.6985 H       1  UNL1        0.0694
     56 H          -1.3986   -0.6240    4.0868 H       1  UNL1        0.0660
     57 H          -1.8538    1.0069    4.5187 H       1  UNL1        0.0660
     58 H          -0.1674    0.5929    4.3240 H       1  UNL1        0.0660
@<TRIPOS>UNITY_ATOM_ATTR
5 1
charge 1
@<TRIPOS>BOND
     1     1    23   ar
     2     1    26   ar
     3     2     6    1
     4     2    15    1
     5     3    24    1
     6     3    27    1
     7     4    16   ar
     8     4    20   ar
     9     5    17    1
    10     5    21    1
    11     5    28    1
    12     5    29    1
    13     6     8    1
    14     6     9    1
    15     6    10    1
    16     7     8    1
    17     7    11    1
    18     7    14    1
    19     7    16    1
    20     8    30    1
    21     8    31    1
    22     9    12    1
    23     9    32    1
    24     9    33    1
    25    10    13    1
    26    10    34    1
    27    10    35    1
    28    11    15    1
    29    11    36    1
    30    11    37    1
    31    12    13    1
    32    12    38    1
    33    12    39    1
    34    13    40    1
    35    13    41    1
    36    14    17    1
    37    14    42    1
    38    14    43    1
    39    15    44    1
    40    15    45    1
    41    16    18   ar
    42    17    46    1
    43    17    47    1
    44    18    19   ar
    45    18    48    1
    46    19    22   ar
    47    19    49    1
    48    20    22   ar
    49    20    50    1
    50    21    23    1
    51    21    51    1
    52    21    52    1
    53    22    53    1
    54    23    24   ar
    55    24    25   ar
    56    25    26   ar
    57    25    54    1
    58    26    55    1
    59    27    56    1
    60    27    57    1
    61    27    58    1
@<TRIPOS>MOLECULE
66553195
 58 61 0 0 0
SMALL
GASTEIGER

@<TRIPOS>ATOM
      1 S          -0.8200    4.0099    4.0047 S.2     1  UNL1       -0.0926
      2 O           3.9947    1.8338   -0.6210 O.3     1  UNL1       -0.3733
      3 O           0.2960    0.3098    4.0725 O.3     1  UNL1       -0.4941
      4 N           1.7905   -1.4089   -1.5144 N.ar    1  UNL1       -0.2593
      5 N          -1.5373    2.5691    1.2118 N.4     1  UNL1        0.2308
      6 C           3.9072    1.0510    0.5757 C.3     1  UNL1        0.0704
      7 C           1.4313    0.5057   -0.0051 C.3     1  UNL1        0.0224
      8 C           2.4527    0.9788    1.0713 C.3     1  UNL1       -0.0124
      9 C           4.8008    1.7382    1.6213 C.3     1  UNL1       -0.0237
     10 C           4.6231   -0.2974    0.4268 C.3     1  UNL1       -0.0237
     11 C           1.6850    1.3950   -1.2530 C.3     1  UNL1       -0.0181
     12 C           6.2268    1.3540    1.2306 C.3     1  UNL1       -0.0504
     13 C           6.1087    0.0588    0.4313 C.3     1  UNL1       -0.0504
     14 C          -0.0007    0.8133    0.4991 C.3     1  UNL1       -0.0013
     15 C           3.1485    1.4020   -1.6812 C.3     1  UNL1        0.0492
     16 C           1.4898   -1.0143   -0.2569 C.ar    1  UNL1        0.0478
     17 C          -0.1891    2.3072    0.7222 C.3     1  UNL1       -0.0325
     18 C           1.2388   -1.8858    0.7906 C.ar    1  UNL1       -0.0398
     19 C           1.3008   -3.2503    0.5309 C.ar    1  UNL1       -0.0586
     20 C           1.8415   -2.7429   -1.7290 C.ar    1  UNL1        0.0279
     21 C          -1.7699    1.8924    2.4800 C.3     1  UNL1        0.0021
     22 C           1.6073   -3.6952   -0.7503 C.ar    1  UNL1       -0.0436
     23 C          -0.8167    2.3597    3.5478 C.ar    1  UNL1        0.0756
     24 C           0.1109    1.6287    4.2571 C.ar    1  UNL1        0.1353
     25 C           0.8283    2.4342    5.1878 C.ar    1  UNL1       -0.0124
     26 C           0.4218    3.7500    5.1546 C.ar    1  UNL1       -0.0203
     27 C           0.7258   -0.4660    5.2001 C.3     1  UNL1        0.0788
     28 H          -2.2130    2.2335    0.5254 H       1  UNL1        0.2017
     29 H          -1.6431    3.5736    1.3541 H       1  UNL1        0.2017
     30 H           2.1628    1.9541    1.4025 H       1  UNL1        0.0302
     31 H           2.4318    0.2502    1.8546 H       1  UNL1        0.0302
     32 H           4.5711    1.3839    2.6045 H       1  UNL1        0.0293
     33 H           4.6591    2.7986    1.6388 H       1  UNL1        0.0293
     34 H           4.3502   -0.7715   -0.4928 H       1  UNL1        0.0293
     35 H           4.3659   -0.9840    1.2061 H       1  UNL1        0.0293
     36 H           1.3901    2.3979   -1.0246 H       1  UNL1        0.0296
     37 H           1.1131    0.9894   -2.0613 H       1  UNL1        0.0296
     38 H           6.8229    1.1982    2.1054 H       1  UNL1        0.0266
     39 H           6.6984    2.1260    0.6592 H       1  UNL1        0.0266
     40 H           6.4591    0.2056   -0.5690 H       1  UNL1        0.0266
     41 H           6.6986   -0.7233    0.8618 H       1  UNL1        0.0266
     42 H          -0.1653    0.2978    1.4221 H       1  UNL1        0.0326
     43 H          -0.7011    0.4874   -0.2413 H       1  UNL1        0.0326
     44 H           3.4315    0.4119   -1.9720 H       1  UNL1        0.0560
     45 H           3.2580    2.0824   -2.4997 H       1  UNL1        0.0560
     46 H           0.5232    2.6510    1.4429 H       1  UNL1        0.0814
     47 H          -0.0440    2.8230   -0.2040 H       1  UNL1        0.0814
     48 H           1.0130   -1.5332    1.7339 H       1  UNL1        0.0636
     49 H           1.1199   -3.9301    1.2859 H       1  UNL1        0.0619
     50 H           2.0688   -3.0719   -2.6803 H       1  UNL1        0.0829
     51 H          -1.6423    0.8394    2.3389 H       1  UNL1        0.0873
     52 H          -2.7650    2.1205    2.8003 H       1  UNL1        0.0873
     53 H           1.6588   -4.7032   -0.9654 H       1  UNL1        0.0633
     54 H           1.5660    2.0742    5.8134 H       1  UNL1        0.0659
     55 H           0.8188    4.4917    5.7523 H       1  UNL1        0.0694
     56 H           0.8312   -1.4902    4.9089 H       1  UNL1        0.0660
     57 H          -0.0003   -0.3905    5.9825 H       1  UNL1        0.0660
     58 H           1.6668   -0.0960    5.5498 H       1  UNL1        0.0660
@<TRIPOS>UNITY_ATOM_ATTR
5 1
charge 1
@<TRIPOS>BOND
     1     1    23   ar
     2     1    26   ar
     3     2     6    1
     4     2    15    1
     5     3    24    1
     6     3    27    1
     7     4    16   ar
     8     4    20   ar
     9     5    17    1
    10     5    21    1
    11     5    28    1
    12     5    29    1
    13     6     8    1
    14     6     9    1
    15     6    10    1
    16     7     8    1
    17     7    11    1
    18     7    14    1
    19     7    16    1
    20     8    30    1
    21     8    31    1
    22     9    12    1
    23     9    32    1
    24     9    33    1
    25    10    13    1
    26    10    34    1
    27    10    35    1
    28    11    15    1
    29    11    36    1
    30    11    37    1
    31    12    13    1
    32    12    38    1
    33    12    39    1
    34    13    40    1
    35    13    41    1
    36    14    17    1
    37    14    42    1
    38    14    43    1
    39    15    44    1
    40    15    45    1
    41    16    18   ar
    42    17    46    1
    43    17    47    1
    44    18    19   ar
    45    18    48    1
    46    19    22   ar
    47    19    49    1
    48    20    22   ar
    49    20    50    1
    50    21    23    1
    51    21    51    1
    52    21    52    1
    53    22    53    1
    54    23    24   ar
    55    24    25   ar
    56    25    26   ar
    57    25    54    1
    58    26    55    1
    59    27    56    1
    60    27    57    1
    61    27    58    1
@<TRIPOS>MOLECULE
66553195
 58 61 0 0 0
SMALL
GASTEIGER

@<TRIPOS>ATOM
      1 S          -0.8916    1.7845    5.0573 S.2     1  UNL1       -0.0926
      2 O           3.9947    1.8338   -0.6210 O.3     1  UNL1       -0.3733
      3 O           0.2755    4.0149    2.1242 O.3     1  UNL1       -0.4941
      4 N           1.1728   -1.4348   -1.5019 N.ar    1  UNL1       -0.2593
      5 N          -1.6350    0.3940    2.2612 N.4     1  UNL1        0.2308
      6 C           3.9072    1.0510    0.5757 C.3     1  UNL1        0.0704
      7 C           1.4313    0.5057   -0.0051 C.3     1  UNL1        0.0224
      8 C           2.4527    0.9788    1.0713 C.3     1  UNL1       -0.0124
      9 C           4.8008    1.7382    1.6213 C.3     1  UNL1       -0.0237
     10 C           4.6231   -0.2974    0.4268 C.3     1  UNL1       -0.0237
     11 C           1.6850    1.3950   -1.2530 C.3     1  UNL1       -0.0181
     12 C           6.2268    1.3540    1.2306 C.3     1  UNL1       -0.0504
     13 C           6.1087    0.0588    0.4313 C.3     1  UNL1       -0.0504
     14 C          -0.0007    0.8133    0.4991 C.3     1  UNL1       -0.0013
     15 C           3.1485    1.4020   -1.6812 C.3     1  UNL1        0.0492
     16 C           1.4898   -1.0143   -0.2569 C.ar    1  UNL1        0.0478
     17 C          -0.2774    0.1027    1.8165 C.3     1  UNL1       -0.0325
     18 C           1.8563   -1.8599    0.7777 C.ar    1  UNL1       -0.0398
     19 C           1.9006   -3.2250    0.5177 C.ar    1  UNL1       -0.0586
     20 C           1.2269   -2.7685   -1.7172 C.ar    1  UNL1        0.0279
     21 C          -1.8260    1.8261    2.4428 C.3     1  UNL1        0.0021
     22 C           1.5815   -3.6961   -0.7510 C.ar    1  UNL1       -0.0436
     23 C          -0.8702    2.3949    3.4577 C.ar    1  UNL1        0.0756
     24 C           0.0735    3.3853    3.2948 C.ar    1  UNL1        0.1353
     25 C           0.7883    3.6462    4.4993 C.ar    1  UNL1       -0.0124
     26 C           0.3639    2.8454    5.5368 C.ar    1  UNL1       -0.0203
     27 C           1.3002    5.0177    2.0761 C.3     1  UNL1        0.0788
     28 H          -1.8051   -0.0806    3.1479 H       1  UNL1        0.2017
     29 H          -2.2885    0.0656    1.5503 H       1  UNL1        0.2017
     30 H           2.1628    1.9541    1.4025 H       1  UNL1        0.0302
     31 H           2.4318    0.2502    1.8546 H       1  UNL1        0.0302
     32 H           4.5711    1.3839    2.6045 H       1  UNL1        0.0293
     33 H           4.6591    2.7986    1.6388 H       1  UNL1        0.0293
     34 H           4.3502   -0.7715   -0.4928 H       1  UNL1        0.0293
     35 H           4.3659   -0.9840    1.2061 H       1  UNL1        0.0293
     36 H           1.3901    2.3979   -1.0246 H       1  UNL1        0.0296
     37 H           1.1131    0.9894   -2.0613 H       1  UNL1        0.0296
     38 H           6.8229    1.1982    2.1054 H       1  UNL1        0.0266
     39 H           6.6984    2.1260    0.6592 H       1  UNL1        0.0266
     40 H           6.4591    0.2056   -0.5690 H       1  UNL1        0.0266
     41 H           6.6986   -0.7233    0.8618 H       1  UNL1        0.0266
     42 H          -0.7081    0.4828   -0.2325 H       1  UNL1        0.0326
     43 H          -0.0890    1.8682    0.6548 H       1  UNL1        0.0326
     44 H           3.4315    0.4119   -1.9720 H       1  UNL1        0.0560
     45 H           3.2580    2.0824   -2.4997 H       1  UNL1        0.0560
     46 H          -0.1674   -0.9529    1.6803 H       1  UNL1        0.0814
     47 H           0.4168    0.4462    2.5548 H       1  UNL1        0.0814
     48 H           2.0890   -1.4881    1.7119 H       1  UNL1        0.0636
     49 H           2.1692   -3.8860    1.2633 H       1  UNL1        0.0619
     50 H           0.9896   -3.1170   -2.6591 H       1  UNL1        0.0829
     51 H          -2.8280    2.0024    2.7742 H       1  UNL1        0.0873
     52 H          -1.6398    2.3072    1.5053 H       1  UNL1        0.0873
     53 H           1.6078   -4.7050   -0.9662 H       1  UNL1        0.0633
     54 H           1.5362    4.3522    4.5846 H       1  UNL1        0.0659
     55 H           0.7564    2.8808    6.4906 H       1  UNL1        0.0694
     56 H           1.3488    5.4311    1.0904 H       1  UNL1        0.0660
     57 H           2.2429    4.5766    2.3248 H       1  UNL1        0.0660
     58 H           1.0734    5.7934    2.7774 H       1  UNL1        0.0660
@<TRIPOS>UNITY_ATOM_ATTR
5 1
charge 1
@<TRIPOS>BOND
     1     1    23   ar
     2     1    26   ar
     3     2     6    1
     4     2    15    1
     5     3    24    1
     6     3    27    1
     7     4    16   ar
     8     4    20   ar
     9     5    17    1
    10     5    21    1
    11     5    28    1
    12     5    29    1
    13     6     8    1
    14     6     9    1
    15     6    10    1
    16     7     8    1
    17     7    11    1
    18     7    14    1
    19     7    16    1
    20     8    30    1
    21     8    31    1
    22     9    12    1
    23     9    32    1
    24     9    33    1
    25    10    13    1
    26    10    34    1
    27    10    35    1
    28    11    15    1
    29    11    36    1
    30    11    37    1
    31    12    13    1
    32    12    38    1
    33    12    39    1
    34    13    40    1
    35    13    41    1
    36    14    17    1
    37    14    42    1
    38    14    43    1
    39    15    44    1
    40    15    45    1
    41    16    18   ar
    42    17    46    1
    43    17    47    1
    44    18    19   ar
    45    18    48    1
    46    19    22   ar
    47    19    49    1
    48    20    22   ar
    49    20    50    1
    50    21    23    1
    51    21    51    1
    52    21    52    1
    53    22    53    1
    54    23    24   ar
    55    24    25   ar
    56    25    26   ar
    57    25    54    1
    58    26    55    1
    59    27    56    1
    60    27    57    1
    61    27    58    1
@<TRIPOS>MOLECULE
66553195
 58 61 0 0 0
SMALL
GASTEIGER

@<TRIPOS>ATOM
      1 S          -4.7344    1.7194    1.2463 S.2     1  UNL1       -0.0926
      2 O           3.9947    1.8338   -0.6210 O.3     1  UNL1       -0.3733
      3 O          -4.5430   -1.7427    2.9542 O.3     1  UNL1       -0.4941
      4 N           2.3917   -1.7141    0.4672 N.ar    1  UNL1       -0.2593
      5 N          -1.6350    0.3940    2.2612 N.4     1  UNL1        0.2308
      6 C           3.9072    1.0510    0.5757 C.3     1  UNL1        0.0704
      7 C           1.4313    0.5057   -0.0051 C.3     1  UNL1        0.0224
      8 C           2.4527    0.9788    1.0713 C.3     1  UNL1       -0.0124
      9 C           4.8008    1.7382    1.6213 C.3     1  UNL1       -0.0237
     10 C           4.6231   -0.2974    0.4268 C.3     1  UNL1       -0.0237
     11 C           1.6850    1.3950   -1.2530 C.3     1  UNL1       -0.0181
     12 C           6.2268    1.3540    1.2306 C.3     1  UNL1       -0.0504
     13 C           6.1087    0.0588    0.4313 C.3     1  UNL1       -0.0504
     14 C          -0.0007    0.8133    0.4991 C.3     1  UNL1       -0.0013
     15 C           3.1485    1.4020   -1.6812 C.3     1  UNL1        0.0492
     16 C           1.4898   -1.0143   -0.2569 C.ar    1  UNL1        0.0478
     17 C          -0.2774    0.1027    1.8165 C.3     1  UNL1       -0.0325
     18 C           0.6363   -1.5809   -1.1898 C.ar    1  UNL1       -0.0398
     19 C           0.7132   -2.9543   -1.3924 C.ar    1  UNL1       -0.0586
     20 C           2.4377   -3.0466    0.2430 C.ar    1  UNL1        0.0279
     21 C          -2.6118   -0.0704    1.2863 C.3     1  UNL1        0.0021
     22 C           1.6284   -3.7083   -0.6662 C.ar    1  UNL1       -0.0436
     23 C          -4.0220    0.2350    1.7163 C.ar    1  UNL1        0.0756
     24 C          -4.8803   -0.5342    2.4711 C.ar    1  UNL1        0.1353
     25 C          -6.1392    0.1037    2.6659 C.ar    1  UNL1       -0.0124
     26 C          -6.1954    1.3360    2.0526 C.ar    1  UNL1       -0.0203
     27 C          -5.5304   -2.4553    3.7127 C.3     1  UNL1        0.0788
     28 H          -1.7377    1.4015    2.3829 H       1  UNL1        0.2017
     29 H          -1.7999   -0.0900    3.1438 H       1  UNL1        0.2017
     30 H           2.1628    1.9541    1.4025 H       1  UNL1        0.0302
     31 H           2.4318    0.2502    1.8546 H       1  UNL1        0.0302
     32 H           4.5711    1.3839    2.6045 H       1  UNL1        0.0293
     33 H           4.6591    2.7986    1.6388 H       1  UNL1        0.0293
     34 H           4.3502   -0.7715   -0.4928 H       1  UNL1        0.0293
     35 H           4.3659   -0.9840    1.2061 H       1  UNL1        0.0293
     36 H           1.3901    2.3979   -1.0246 H       1  UNL1        0.0296
     37 H           1.1131    0.9894   -2.0613 H       1  UNL1        0.0296
     38 H           6.8229    1.1982    2.1054 H       1  UNL1        0.0266
     39 H           6.6984    2.1260    0.6592 H       1  UNL1        0.0266
     40 H           6.4591    0.2056   -0.5690 H       1  UNL1        0.0266
     41 H           6.6986   -0.7233    0.8618 H       1  UNL1        0.0266
     42 H          -0.7081    0.4828   -0.2325 H       1  UNL1        0.0326
     43 H          -0.0890    1.8682    0.6548 H       1  UNL1        0.0326
     44 H           3.4315    0.4119   -1.9720 H       1  UNL1        0.0560
     45 H           3.2580    2.0824   -2.4997 H       1  UNL1        0.0560
     46 H          -0.1674   -0.9529    1.6803 H       1  UNL1        0.0814
     47 H           0.4168    0.4462    2.5548 H       1  UNL1        0.0814
     48 H          -0.0353   -1.0018   -1.7176 H       1  UNL1        0.0636
     49 H           0.0936   -3.4122   -2.0789 H       1  UNL1        0.0619
     50 H           3.1175   -3.6052    0.7823 H       1  UNL1        0.0829
     51 H          -2.5073   -1.1289    1.1689 H       1  UNL1        0.0873
     52 H          -2.4282    0.4396    0.3637 H       1  UNL1        0.0873
     53 H           1.7024   -4.7289   -0.8004 H       1  UNL1        0.0633
     54 H          -6.9177   -0.3089    3.2033 H       1  UNL1        0.0659
     55 H          -7.0207    1.9550    2.0764 H       1  UNL1        0.0694
     56 H          -5.1268   -3.3936    4.0313 H       1  UNL1        0.0660
     57 H          -6.3932   -2.6265    3.1033 H       1  UNL1        0.0660
     58 H          -5.8079   -1.8772    4.5693 H       1  UNL1        0.0660
@<TRIPOS>UNITY_ATOM_ATTR
5 1
charge 1
@<TRIPOS>BOND
     1     1    23   ar
     2     1    26   ar
     3     2     6    1
     4     2    15    1
     5     3    24    1
     6     3    27    1
     7     4    16   ar
     8     4    20   ar
     9     5    17    1
    10     5    21    1
    11     5    28    1
    12     5    29    1
    13     6     8    1
    14     6     9    1
    15     6    10    1
    16     7     8    1
    17     7    11    1
    18     7    14    1
    19     7    16    1
    20     8    30    1
    21     8    31    1
    22     9    12    1
    23     9    32    1
    24     9    33    1
    25    10    13    1
    26    10    34    1
    27    10    35    1
    28    11    15    1
    29    11    36    1
    30    11    37    1
    31    12    13    1
    32    12    38    1
    33    12    39    1
    34    13    40    1
    35    13    41    1
    36    14    17    1
    37    14    42    1
    38    14    43    1
    39    15    44    1
    40    15    45    1
    41    16    18   ar
    42    17    46    1
    43    17    47    1
    44    18    19   ar
    45    18    48    1
    46    19    22   ar
    47    19    49    1
    48    20    22   ar
    49    20    50    1
    50    21    23    1
    51    21    51    1
    52    21    52    1
    53    22    53    1
    54    23    24   ar
    55    24    25   ar
    56    25    26   ar
    57    25    54    1
    58    26    55    1
    59    27    56    1
    60    27    57    1
    61    27    58    1
@<TRIPOS>MOLECULE
66553195
 58 61 0 0 0
SMALL
GASTEIGER

@<TRIPOS>ATOM
      1 S          -4.5038   -0.3475    3.2745 S.2     1  UNL1       -0.0926
      2 O           3.9947    1.8338   -0.6210 O.3     1  UNL1       -0.3733
      3 O          -4.8549    1.6990    0.0144 O.3     1  UNL1       -0.4941
      4 N           0.6793   -1.7857    0.5017 N.ar    1  UNL1       -0.2593
      5 N          -2.3798    0.6689   -0.0216 N.4     1  UNL1        0.2308
      6 C           3.9072    1.0510    0.5757 C.3     1  UNL1        0.0704
      7 C           1.4313    0.5057   -0.0051 C.3     1  UNL1        0.0224
      8 C           2.4527    0.9788    1.0713 C.3     1  UNL1       -0.0124
      9 C           4.8008    1.7382    1.6213 C.3     1  UNL1       -0.0237
     10 C           4.6231   -0.2974    0.4268 C.3     1  UNL1       -0.0237
     11 C           1.6850    1.3950   -1.2530 C.3     1  UNL1       -0.0181
     12 C           6.2268    1.3540    1.2306 C.3     1  UNL1       -0.0504
     13 C           6.1087    0.0588    0.4313 C.3     1  UNL1       -0.0504
     14 C          -0.0007    0.8133    0.4991 C.3     1  UNL1       -0.0013
     15 C           3.1485    1.4020   -1.6812 C.3     1  UNL1        0.0492
     16 C           1.4898   -1.0143   -0.2569 C.ar    1  UNL1        0.0478
     17 C          -1.0428    0.3538   -0.5107 C.3     1  UNL1       -0.0325
     18 C           2.3481   -1.5091   -1.2255 C.ar    1  UNL1       -0.0398
     19 C           2.3761   -2.8842   -1.4290 C.ar    1  UNL1       -0.0586
     20 C           0.7340   -3.1176    0.2757 C.ar    1  UNL1        0.0279
     21 C          -2.6329    0.0163    1.2551 C.3     1  UNL1        0.0021
     22 C           1.5567   -3.7107   -0.6683 C.ar    1  UNL1       -0.0436
     23 C          -4.0153    0.3136    1.7725 C.ar    1  UNL1        0.0756
     24 C          -5.0069    1.0773    1.1968 C.ar    1  UNL1        0.1353
     25 C          -6.1831    1.1200    1.9996 C.ar    1  UNL1       -0.0124
     26 C          -6.0458    0.3876    3.1582 C.ar    1  UNL1       -0.0203
     27 C          -5.5732    2.9238   -0.1905 C.3     1  UNL1        0.0788
     28 H          -3.0686    0.3491   -0.7026 H       1  UNL1        0.2017
     29 H          -2.4497    1.6782    0.1086 H       1  UNL1        0.2017
     30 H           2.1628    1.9541    1.4025 H       1  UNL1        0.0302
     31 H           2.4318    0.2502    1.8546 H       1  UNL1        0.0302
     32 H           4.5711    1.3839    2.6045 H       1  UNL1        0.0293
     33 H           4.6591    2.7986    1.6388 H       1  UNL1        0.0293
     34 H           4.3502   -0.7715   -0.4928 H       1  UNL1        0.0293
     35 H           4.3659   -0.9840    1.2061 H       1  UNL1        0.0293
     36 H           1.3901    2.3979   -1.0246 H       1  UNL1        0.0296
     37 H           1.1131    0.9894   -2.0613 H       1  UNL1        0.0296
     38 H           6.8229    1.1982    2.1054 H       1  UNL1        0.0266
     39 H           6.6984    2.1260    0.6592 H       1  UNL1        0.0266
     40 H           6.4591    0.2056   -0.5690 H       1  UNL1        0.0266
     41 H           6.6986   -0.7233    0.8618 H       1  UNL1        0.0266
     42 H          -0.1000    1.8680    0.6496 H       1  UNL1        0.0326
     43 H          -0.1599    0.2879    1.4175 H       1  UNL1        0.0326
     44 H           3.4315    0.4119   -1.9720 H       1  UNL1        0.0560
     45 H           3.2580    2.0824   -2.4997 H       1  UNL1        0.0560
     46 H          -0.8788    0.8537   -1.4425 H       1  UNL1        0.0814
     47 H          -0.9581   -0.7040   -0.6482 H       1  UNL1        0.0814
     48 H           2.9477   -0.8769   -1.7786 H       1  UNL1        0.0636
     49 H           3.0026   -3.2898   -2.1417 H       1  UNL1        0.0619
     50 H           0.1256   -3.7300    0.8411 H       1  UNL1        0.0829
     51 H          -1.9145    0.3619    1.9689 H       1  UNL1        0.0873
     52 H          -2.5533   -1.0407    1.1091 H       1  UNL1        0.0873
     53 H           1.5611   -4.7340   -0.8026 H       1  UNL1        0.0633
     54 H          -7.0377    1.6388    1.7432 H       1  UNL1        0.0659
     55 H          -6.7851    0.2932    3.8720 H       1  UNL1        0.0694
     56 H          -5.3586    3.3040   -1.1674 H       1  UNL1        0.0660
     57 H          -5.2730    3.6407    0.5451 H       1  UNL1        0.0660
     58 H          -6.6236    2.7404   -0.1019 H       1  UNL1        0.0660
@<TRIPOS>UNITY_ATOM_ATTR
5 1
charge 1
@<TRIPOS>BOND
     1     1    23   ar
     2     1    26   ar
     3     2     6    1
     4     2    15    1
     5     3    24    1
     6     3    27    1
     7     4    16   ar
     8     4    20   ar
     9     5    17    1
    10     5    21    1
    11     5    28    1
    12     5    29    1
    13     6     8    1
    14     6     9    1
    15     6    10    1
    16     7     8    1
    17     7    11    1
    18     7    14    1
    19     7    16    1
    20     8    30    1
    21     8    31    1
    22     9    12    1
    23     9    32    1
    24     9    33    1
    25    10    13    1
    26    10    34    1
    27    10    35    1
    28    11    15    1
    29    11    36    1
    30    11    37    1
    31    12    13    1
    32    12    38    1
    33    12    39    1
    34    13    40    1
    35    13    41    1
    36    14    17    1
    37    14    42    1
    38    14    43    1
    39    15    44    1
    40    15    45    1
    41    16    18   ar
    42    17    46    1
    43    17    47    1
    44    18    19   ar
    45    18    48    1
    46    19    22   ar
    47    19    49    1
    48    20    22   ar
    49    20    50    1
    50    21    23    1
    51    21    51    1
    52    21    52    1
    53    22    53    1
    54    23    24   ar
    55    24    25   ar
    56    25    26   ar
    57    25    54    1
    58    26    55    1
    59    27    56    1
    60    27    57    1
    61    27    58    1
@<TRIPOS>MOLECULE
66553195
 58 61 0 0 0
SMALL
GASTEIGER

@<TRIPOS>ATOM
      1 S          -2.1759   -2.1917   -0.3402 S.2     1  UNL1       -0.0926
      2 O           3.9947    1.8338   -0.6210 O.3     1  UNL1       -0.3733
      3 O          -5.1312   -1.5442   -2.7459 O.3     1  UNL1       -0.4941
      4 N           1.1728   -1.4348   -1.5019 N.ar    1  UNL1       -0.2593
      5 N          -2.3798    0.6689   -0.0216 N.4     1  UNL1        0.2308
      6 C           3.9072    1.0510    0.5757 C.3     1  UNL1        0.0704
      7 C           1.4313    0.5057   -0.0051 C.3     1  UNL1        0.0224
      8 C           2.4527    0.9788    1.0713 C.3     1  UNL1       -0.0124
      9 C           4.8008    1.7382    1.6213 C.3     1  UNL1       -0.0237
     10 C           4.6231   -0.2974    0.4268 C.3     1  UNL1       -0.0237
     11 C           1.6850    1.3950   -1.2530 C.3     1  UNL1       -0.0181
     12 C           6.2268    1.3540    1.2306 C.3     1  UNL1       -0.0504
     13 C           6.1087    0.0588    0.4313 C.3     1  UNL1       -0.0504
     14 C          -0.0007    0.8133    0.4991 C.3     1  UNL1       -0.0013
     15 C           3.1485    1.4020   -1.6812 C.3     1  UNL1        0.0492
     16 C           1.4898   -1.0143   -0.2569 C.ar    1  UNL1        0.0478
     17 C          -1.0428    0.3538   -0.5107 C.3     1  UNL1       -0.0325
     18 C           1.8563   -1.8599    0.7777 C.ar    1  UNL1       -0.0398
     19 C           1.9006   -3.2250    0.5177 C.ar    1  UNL1       -0.0586
     20 C           1.2269   -2.7685   -1.7172 C.ar    1  UNL1        0.0279
     21 C          -3.3961    0.2233   -0.9644 C.3     1  UNL1        0.0021
     22 C           1.5815   -3.6961   -0.7510 C.ar    1  UNL1       -0.0436
     23 C          -3.3471   -1.2662   -1.1790 C.ar    1  UNL1        0.0756
     24 C          -4.1406   -2.0483   -1.9893 C.ar    1  UNL1        0.1353
     25 C          -3.7822   -3.4254   -1.9204 C.ar    1  UNL1       -0.0124
     26 C          -2.7286   -3.6436   -1.0602 C.ar    1  UNL1       -0.0203
     27 C          -5.4399   -2.2189   -3.9737 C.3     1  UNL1        0.0788
     28 H          -2.4602    1.6780    0.1040 H       1  UNL1        0.2017
     29 H          -2.5244    0.1869    0.8656 H       1  UNL1        0.2017
     30 H           2.1628    1.9541    1.4025 H       1  UNL1        0.0302
     31 H           2.4318    0.2502    1.8546 H       1  UNL1        0.0302
     32 H           4.5711    1.3839    2.6045 H       1  UNL1        0.0293
     33 H           4.6591    2.7986    1.6388 H       1  UNL1        0.0293
     34 H           4.3502   -0.7715   -0.4928 H       1  UNL1        0.0293
     35 H           4.3659   -0.9840    1.2061 H       1  UNL1        0.0293
     36 H           1.3901    2.3979   -1.0246 H       1  UNL1        0.0296
     37 H           1.1131    0.9894   -2.0613 H       1  UNL1        0.0296
     38 H           6.8229    1.1982    2.1054 H       1  UNL1        0.0266
     39 H           6.6984    2.1260    0.6592 H       1  UNL1        0.0266
     40 H           6.4591    0.2056   -0.5690 H       1  UNL1        0.0266
     41 H           6.6986   -0.7233    0.8618 H       1  UNL1        0.0266
     42 H          -0.1000    1.8680    0.6496 H       1  UNL1        0.0326
     43 H          -0.1599    0.2879    1.4175 H       1  UNL1        0.0326
     44 H           3.4315    0.4119   -1.9720 H       1  UNL1        0.0560
     45 H           3.2580    2.0824   -2.4997 H       1  UNL1        0.0560
     46 H          -0.8788    0.8537   -1.4425 H       1  UNL1        0.0814
     47 H          -0.9581   -0.7040   -0.6482 H       1  UNL1        0.0814
     48 H           2.0890   -1.4881    1.7119 H       1  UNL1        0.0636
     49 H           2.1692   -3.8860    1.2633 H       1  UNL1        0.0619
     50 H           0.9896   -3.1170   -2.6591 H       1  UNL1        0.0829
     51 H          -3.2370    0.7135   -1.9022 H       1  UNL1        0.0873
     52 H          -4.3554    0.4690   -0.5590 H       1  UNL1        0.0873
     53 H           1.6078   -4.7050   -0.9662 H       1  UNL1        0.0633
     54 H          -4.2562   -4.1720   -2.4526 H       1  UNL1        0.0659
     55 H          -2.3205   -4.5726   -0.8719 H       1  UNL1        0.0694
     56 H          -6.2419   -1.7113   -4.4677 H       1  UNL1        0.0660
     57 H          -5.7315   -3.2267   -3.7633 H       1  UNL1        0.0660
     58 H          -4.5766   -2.2219   -4.6059 H       1  UNL1        0.0660
@<TRIPOS>UNITY_ATOM_ATTR
5 1
charge 1
@<TRIPOS>BOND
     1     1    23   ar
     2     1    26   ar
     3     2     6    1
     4     2    15    1
     5     3    24    1
     6     3    27    1
     7     4    16   ar
     8     4    20   ar
     9     5    17    1
    10     5    21    1
    11     5    28    1
    12     5    29    1
    13     6     8    1
    14     6     9    1
    15     6    10    1
    16     7     8    1
    17     7    11    1
    18     7    14    1
    19     7    16    1
    20     8    30    1
    21     8    31    1
    22     9    12    1
    23     9    32    1
    24     9    33    1
    25    10    13    1
    26    10    34    1
    27    10    35    1
    28    11    15    1
    29    11    36    1
    30    11    37    1
    31    12    13    1
    32    12    38    1
    33    12    39    1
    34    13    40    1
    35    13    41    1
    36    14    17    1
    37    14    42    1
    38    14    43    1
    39    15    44    1
    40    15    45    1
    41    16    18   ar
    42    17    46    1
    43    17    47    1
    44    18    19   ar
    45    18    48    1
    46    19    22   ar
    47    19    49    1
    48    20    22   ar
    49    20    50    1
    50    21    23    1
    51    21    51    1
    52    21    52    1
    53    22    53    1
    54    23    24   ar
    55    24    25   ar
    56    25    26   ar
    57    25    54    1
    58    26    55    1
    59    27    56    1
    60    27    57    1
    61    27    58    1
@<TRIPOS>MOLECULE
66553195
 58 61 0 0 0
SMALL
GASTEIGER

@<TRIPOS>ATOM
      1 S           0.6738    1.5419    3.7512 S.2     1  UNL1       -0.0926
      2 O           3.9947    1.8338   -0.6210 O.3     1  UNL1       -0.3733
      3 O          -2.0501    4.1886    4.4694 O.3     1  UNL1       -0.4941
      4 N           0.3359   -1.6114   -0.6301 N.ar    1  UNL1       -0.2593
      5 N          -1.5373    2.5691    1.2118 N.4     1  UNL1        0.2308
      6 C           3.9072    1.0510    0.5757 C.3     1  UNL1        0.0704
      7 C           1.4313    0.5057   -0.0051 C.3     1  UNL1        0.0224
      8 C           2.4527    0.9788    1.0713 C.3     1  UNL1       -0.0124
      9 C           4.8008    1.7382    1.6213 C.3     1  UNL1       -0.0237
     10 C           4.6231   -0.2974    0.4268 C.3     1  UNL1       -0.0237
     11 C           1.6850    1.3950   -1.2530 C.3     1  UNL1       -0.0181
     12 C           6.2268    1.3540    1.2306 C.3     1  UNL1       -0.0504
     13 C           6.1087    0.0588    0.4313 C.3     1  UNL1       -0.0504
     14 C          -0.0007    0.8133    0.4991 C.3     1  UNL1       -0.0013
     15 C           3.1485    1.4020   -1.6812 C.3     1  UNL1        0.0492
     16 C           1.4898   -1.0143   -0.2569 C.ar    1  UNL1        0.0478
     17 C          -0.1891    2.3072    0.7222 C.3     1  UNL1       -0.0325
     18 C           2.6922   -1.6832   -0.0944 C.ar    1  UNL1       -0.0398
     19 C           2.7117   -3.0533   -0.3305 C.ar    1  UNL1       -0.0586
     20 C           0.3934   -2.9441   -0.8507 C.ar    1  UNL1        0.0279
     21 C          -1.7699    1.8924    2.4800 C.3     1  UNL1        0.0021
     22 C           1.5446   -3.7033   -0.7163 C.ar    1  UNL1       -0.0436
     23 C          -0.8167    2.3597    3.5478 C.ar    1  UNL1        0.0756
     24 C          -0.9611    3.4007    4.4385 C.ar    1  UNL1        0.1353
     25 C           0.1671    3.5284    5.2992 C.ar    1  UNL1       -0.0124
     26 C           1.1307    2.5805    5.0336 C.ar    1  UNL1       -0.0203
     27 C          -2.0753    5.2515    5.4325 C.3     1  UNL1        0.0788
     28 H          -2.2130    2.2335    0.5254 H       1  UNL1        0.2017
     29 H          -1.6431    3.5736    1.3541 H       1  UNL1        0.2017
     30 H           2.1628    1.9541    1.4025 H       1  UNL1        0.0302
     31 H           2.4318    0.2502    1.8546 H       1  UNL1        0.0302
     32 H           4.5711    1.3839    2.6045 H       1  UNL1        0.0293
     33 H           4.6591    2.7986    1.6388 H       1  UNL1        0.0293
     34 H           4.3502   -0.7715   -0.4928 H       1  UNL1        0.0293
     35 H           4.3659   -0.9840    1.2061 H       1  UNL1        0.0293
     36 H           1.3901    2.3979   -1.0246 H       1  UNL1        0.0296
     37 H           1.1131    0.9894   -2.0613 H       1  UNL1        0.0296
     38 H           6.8229    1.1982    2.1054 H       1  UNL1        0.0266
     39 H           6.6984    2.1260    0.6592 H       1  UNL1        0.0266
     40 H           6.4591    0.2056   -0.5690 H       1  UNL1        0.0266
     41 H           6.6986   -0.7233    0.8618 H       1  UNL1        0.0266
     42 H          -0.1653    0.2978    1.4221 H       1  UNL1        0.0326
     43 H          -0.7011    0.4874   -0.2413 H       1  UNL1        0.0326
     44 H           3.4315    0.4119   -1.9720 H       1  UNL1        0.0560
     45 H           3.2580    2.0824   -2.4997 H       1  UNL1        0.0560
     46 H           0.5232    2.6510    1.4429 H       1  UNL1        0.0814
     47 H          -0.0440    2.8230   -0.2040 H       1  UNL1        0.0814
     48 H           3.5465   -1.1804    0.1929 H       1  UNL1        0.0636
     49 H           3.5888   -3.5857   -0.2197 H       1  UNL1        0.0619
     50 H          -0.4734   -3.4255   -1.1367 H       1  UNL1        0.0829
     51 H          -1.6423    0.8394    2.3389 H       1  UNL1        0.0873
     52 H          -2.7650    2.1205    2.8003 H       1  UNL1        0.0873
     53 H           1.5362   -4.7193   -0.8968 H       1  UNL1        0.0633
     54 H           0.2524    4.2468    6.0353 H       1  UNL1        0.0659
     55 H           2.0228    2.5051    5.5470 H       1  UNL1        0.0694
     56 H          -2.9946    5.7917    5.3435 H       1  UNL1        0.0660
     57 H          -1.2538    5.9136    5.2545 H       1  UNL1        0.0660
     58 H          -1.9963    4.8419    6.4178 H       1  UNL1        0.0660
@<TRIPOS>UNITY_ATOM_ATTR
5 1
charge 1
@<TRIPOS>BOND
     1     1    23   ar
     2     1    26   ar
     3     2     6    1
     4     2    15    1
     5     3    24    1
     6     3    27    1
     7     4    16   ar
     8     4    20   ar
     9     5    17    1
    10     5    21    1
    11     5    28    1
    12     5    29    1
    13     6     8    1
    14     6     9    1
    15     6    10    1
    16     7     8    1
    17     7    11    1
    18     7    14    1
    19     7    16    1
    20     8    30    1
    21     8    31    1
    22     9    12    1
    23     9    32    1
    24     9    33    1
    25    10    13    1
    26    10    34    1
    27    10    35    1
    28    11    15    1
    29    11    36    1
    30    11    37    1
    31    12    13    1
    32    12    38    1
    33    12    39    1
    34    13    40    1
    35    13    41    1
    36    14    17    1
    37    14    42    1
    38    14    43    1
    39    15    44    1
    40    15    45    1
    41    16    18   ar
    42    17    46    1
    43    17    47    1
    44    18    19   ar
    45    18    48    1
    46    19    22   ar
    47    19    49    1
    48    20    22   ar
    49    20    50    1
    50    21    23    1
    51    21    51    1
    52    21    52    1
    53    22    53    1
    54    23    24   ar
    55    24    25   ar
    56    25    26   ar
    57    25    54    1
    58    26    55    1
    59    27    56    1
    60    27    57    1
    61    27    58    1
@<TRIPOS>MOLECULE
66553195
 58 61 0 0 0
SMALL
GASTEIGER

@<TRIPOS>ATOM
      1 S          -0.8200    4.0099    4.0047 S.2     1  UNL1       -0.0926
      2 O           3.9947    1.8338   -0.6210 O.3     1  UNL1       -0.3733
      3 O           0.2960    0.3098    4.0725 O.3     1  UNL1       -0.4941
      4 N           2.3917   -1.7141    0.4672 N.ar    1  UNL1       -0.2593
      5 N          -1.5373    2.5691    1.2118 N.4     1  UNL1        0.2308
      6 C           3.9072    1.0510    0.5757 C.3     1  UNL1        0.0704
      7 C           1.4313    0.5057   -0.0051 C.3     1  UNL1        0.0224
      8 C           2.4527    0.9788    1.0713 C.3     1  UNL1       -0.0124
      9 C           4.8008    1.7382    1.6213 C.3     1  UNL1       -0.0237
     10 C           4.6231   -0.2974    0.4268 C.3     1  UNL1       -0.0237
     11 C           1.6850    1.3950   -1.2530 C.3     1  UNL1       -0.0181
     12 C           6.2268    1.3540    1.2306 C.3     1  UNL1       -0.0504
     13 C           6.1087    0.0588    0.4313 C.3     1  UNL1       -0.0504
     14 C          -0.0007    0.8133    0.4991 C.3     1  UNL1       -0.0013
     15 C           3.1485    1.4020   -1.6812 C.3     1  UNL1        0.0492
     16 C           1.4898   -1.0143   -0.2569 C.ar    1  UNL1        0.0478
     17 C          -0.1891    2.3072    0.7222 C.3     1  UNL1       -0.0325
     18 C           0.6363   -1.5809   -1.1898 C.ar    1  UNL1       -0.0398
     19 C           0.7132   -2.9543   -1.3924 C.ar    1  UNL1       -0.0586
     20 C           2.4377   -3.0466    0.2430 C.ar    1  UNL1        0.0279
     21 C          -1.7699    1.8924    2.4800 C.3     1  UNL1        0.0021
     22 C           1.6284   -3.7083   -0.6662 C.ar    1  UNL1       -0.0436
     23 C          -0.8167    2.3597    3.5478 C.ar    1  UNL1        0.0756
     24 C           0.1109    1.6287    4.2571 C.ar    1  UNL1        0.1353
     25 C           0.8283    2.4342    5.1878 C.ar    1  UNL1       -0.0124
     26 C           0.4218    3.7500    5.1546 C.ar    1  UNL1       -0.0203
     27 C          -0.8315   -0.4668    3.6442 C.3     1  UNL1        0.0788
     28 H          -2.2130    2.2335    0.5254 H       1  UNL1        0.2017
     29 H          -1.6431    3.5736    1.3541 H       1  UNL1        0.2017
     30 H           2.1628    1.9541    1.4025 H       1  UNL1        0.0302
     31 H           2.4318    0.2502    1.8546 H       1  UNL1        0.0302
     32 H           4.5711    1.3839    2.6045 H       1  UNL1        0.0293
     33 H           4.6591    2.7986    1.6388 H       1  UNL1        0.0293
     34 H           4.3502   -0.7715   -0.4928 H       1  UNL1        0.0293
     35 H           4.3659   -0.9840    1.2061 H       1  UNL1        0.0293
     36 H           1.3901    2.3979   -1.0246 H       1  UNL1        0.0296
     37 H           1.1131    0.9894   -2.0613 H       1  UNL1        0.0296
     38 H           6.8229    1.1982    2.1054 H       1  UNL1        0.0266
     39 H           6.6984    2.1260    0.6592 H       1  UNL1        0.0266
     40 H           6.4591    0.2056   -0.5690 H       1  UNL1        0.0266
     41 H           6.6986   -0.7233    0.8618 H       1  UNL1        0.0266
     42 H          -0.1653    0.2978    1.4221 H       1  UNL1        0.0326
     43 H          -0.7011    0.4874   -0.2413 H       1  UNL1        0.0326
     44 H           3.4315    0.4119   -1.9720 H       1  UNL1        0.0560
     45 H           3.2580    2.0824   -2.4997 H       1  UNL1        0.0560
     46 H           0.5232    2.6510    1.4429 H       1  UNL1        0.0814
     47 H          -0.0440    2.8230   -0.2040 H       1  UNL1        0.0814
     48 H          -0.0353   -1.0018   -1.7176 H       1  UNL1        0.0636
     49 H           0.0936   -3.4122   -2.0789 H       1  UNL1        0.0619
     50 H           3.1175   -3.6052    0.7823 H       1  UNL1        0.0829
     51 H          -1.6423    0.8394    2.3389 H       1  UNL1        0.0873
     52 H          -2.7650    2.1205    2.8003 H       1  UNL1        0.0873
     53 H           1.7024   -4.7289   -0.8004 H       1  UNL1        0.0633
     54 H           1.5660    2.0742    5.8134 H       1  UNL1        0.0659
     55 H           0.8188    4.4917    5.7523 H       1  UNL1        0.0694
     56 H          -0.5400   -1.4909    3.5390 H       1  UNL1        0.0660
     57 H          -1.1824   -0.0974    2.7032 H       1  UNL1        0.0660
     58 H          -1.6133   -0.3914    4.3708 H       1  UNL1        0.0660
@<TRIPOS>UNITY_ATOM_ATTR
5 1
charge 1
@<TRIPOS>BOND
     1     1    23   ar
     2     1    26   ar
     3     2     6    1
     4     2    15    1
     5     3    24    1
     6     3    27    1
     7     4    16   ar
     8     4    20   ar
     9     5    17    1
    10     5    21    1
    11     5    28    1
    12     5    29    1
    13     6     8    1
    14     6     9    1
    15     6    10    1
    16     7     8    1
    17     7    11    1
    18     7    14    1
    19     7    16    1
    20     8    30    1
    21     8    31    1
    22     9    12    1
    23     9    32    1
    24     9    33    1
    25    10    13    1
    26    10    34    1
    27    10    35    1
    28    11    15    1
    29    11    36    1
    30    11    37    1
    31    12    13    1
    32    12    38    1
    33    12    39    1
    34    13    40    1
    35    13    41    1
    36    14    17    1
    37    14    42    1
    38    14    43    1
    39    15    44    1
    40    15    45    1
    41    16    18   ar
    42    17    46    1
    43    17    47    1
    44    18    19   ar
    45    18    48    1
    46    19    22   ar
    47    19    49    1
    48    20    22   ar
    49    20    50    1
    50    21    23    1
    51    21    51    1
    52    21    52    1
    53    22    53    1
    54    23    24   ar
    55    24    25   ar
    56    25    26   ar
    57    25    54    1
    58    26    55    1
    59    27    56    1
    60    27    57    1
    61    27    58    1
@<TRIPOS>MOLECULE
66553195
 58 61 0 0 0
SMALL
GASTEIGER

@<TRIPOS>ATOM
      1 S          -2.0771   -2.7177    4.8169 S.2     1  UNL1       -0.0926
      2 O           3.9947    1.8338   -0.6210 O.3     1  UNL1       -0.3733
      3 O          -1.1140   -1.9876    1.1454 O.3     1  UNL1       -0.4941
      4 N           1.1728   -1.4348   -1.5019 N.ar    1  UNL1       -0.2593
      5 N          -1.6350    0.3940    2.2612 N.4     1  UNL1        0.2308
      6 C           3.9072    1.0510    0.5757 C.3     1  UNL1        0.0704
      7 C           1.4313    0.5057   -0.0051 C.3     1  UNL1        0.0224
      8 C           2.4527    0.9788    1.0713 C.3     1  UNL1       -0.0124
      9 C           4.8008    1.7382    1.6213 C.3     1  UNL1       -0.0237
     10 C           4.6231   -0.2974    0.4268 C.3     1  UNL1       -0.0237
     11 C           1.6850    1.3950   -1.2530 C.3     1  UNL1       -0.0181
     12 C           6.2268    1.3540    1.2306 C.3     1  UNL1       -0.0504
     13 C           6.1087    0.0588    0.4313 C.3     1  UNL1       -0.0504
     14 C          -0.0007    0.8133    0.4991 C.3     1  UNL1       -0.0013
     15 C           3.1485    1.4020   -1.6812 C.3     1  UNL1        0.0492
     16 C           1.4898   -1.0143   -0.2569 C.ar    1  UNL1        0.0478
     17 C          -0.2774    0.1027    1.8165 C.3     1  UNL1       -0.0325
     18 C           1.8563   -1.8599    0.7777 C.ar    1  UNL1       -0.0398
     19 C           1.9006   -3.2250    0.5177 C.ar    1  UNL1       -0.0586
     20 C           1.2269   -2.7685   -1.7172 C.ar    1  UNL1        0.0279
     21 C          -1.9180   -0.2623    3.5298 C.3     1  UNL1        0.0021
     22 C           1.5815   -3.6961   -0.7510 C.ar    1  UNL1       -0.0436
     23 C          -1.7694   -1.7575    3.4329 C.ar    1  UNL1        0.0756
     24 C          -1.4045   -2.5202    2.3452 C.ar    1  UNL1        0.1353
     25 C          -1.3773   -3.9112    2.6523 C.ar    1  UNL1       -0.0124
     26 C          -1.7225   -4.1587    3.9628 C.ar    1  UNL1       -0.0203
     27 C          -1.3959   -2.7769   -0.0189 C.3     1  UNL1        0.0788
     28 H          -2.2953    0.0614    1.5586 H       1  UNL1        0.2017
     29 H          -1.7274    1.4019    2.3879 H       1  UNL1        0.2017
     30 H           2.1628    1.9541    1.4025 H       1  UNL1        0.0302
     31 H           2.4318    0.2502    1.8546 H       1  UNL1        0.0302
     32 H           4.5711    1.3839    2.6045 H       1  UNL1        0.0293
     33 H           4.6591    2.7986    1.6388 H       1  UNL1        0.0293
     34 H           4.3502   -0.7715   -0.4928 H       1  UNL1        0.0293
     35 H           4.3659   -0.9840    1.2061 H       1  UNL1        0.0293
     36 H           1.3901    2.3979   -1.0246 H       1  UNL1        0.0296
     37 H           1.1131    0.9894   -2.0613 H       1  UNL1        0.0296
     38 H           6.8229    1.1982    2.1054 H       1  UNL1        0.0266
     39 H           6.6984    2.1260    0.6592 H       1  UNL1        0.0266
     40 H           6.4591    0.2056   -0.5690 H       1  UNL1        0.0266
     41 H           6.6986   -0.7233    0.8618 H       1  UNL1        0.0266
     42 H          -0.7081    0.4828   -0.2325 H       1  UNL1        0.0326
     43 H          -0.0890    1.8682    0.6548 H       1  UNL1        0.0326
     44 H           3.4315    0.4119   -1.9720 H       1  UNL1        0.0560
     45 H           3.2580    2.0824   -2.4997 H       1  UNL1        0.0560
     46 H          -0.1674   -0.9529    1.6803 H       1  UNL1        0.0814
     47 H           0.4168    0.4462    2.5548 H       1  UNL1        0.0814
     48 H           2.0890   -1.4881    1.7119 H       1  UNL1        0.0636
     49 H           2.1692   -3.8860    1.2633 H       1  UNL1        0.0619
     50 H           0.9896   -3.1170   -2.6591 H       1  UNL1        0.0829
     51 H          -2.9213   -0.0325    3.8222 H       1  UNL1        0.0873
     52 H          -1.2146    0.0951    4.2526 H       1  UNL1        0.0873
     53 H           1.6078   -4.7050   -0.9662 H       1  UNL1        0.0633
     54 H          -1.1283   -4.6469    1.9728 H       1  UNL1        0.0659
     55 H          -1.7625   -5.1015    4.3805 H       1  UNL1        0.0694
     56 H          -1.1161   -2.2315   -0.8958 H       1  UNL1        0.0660
     57 H          -2.4422   -2.9981   -0.0550 H       1  UNL1        0.0660
     58 H          -0.8397   -3.6899    0.0259 H       1  UNL1        0.0660
@<TRIPOS>UNITY_ATOM_ATTR
5 1
charge 1
@<TRIPOS>BOND
     1     1    23   ar
     2     1    26   ar
     3     2     6    1
     4     2    15    1
     5     3    24    1
     6     3    27    1
     7     4    16   ar
     8     4    20   ar
     9     5    17    1
    10     5    21    1
    11     5    28    1
    12     5    29    1
    13     6     8    1
    14     6     9    1
    15     6    10    1
    16     7     8    1
    17     7    11    1
    18     7    14    1
    19     7    16    1
    20     8    30    1
    21     8    31    1
    22     9    12    1
    23     9    32    1
    24     9    33    1
    25    10    13    1
    26    10    34    1
    27    10    35    1
    28    11    15    1
    29    11    36    1
    30    11    37    1
    31    12    13    1
    32    12    38    1
    33    12    39    1
    34    13    40    1
    35    13    41    1
    36    14    17    1
    37    14    42    1
    38    14    43    1
    39    15    44    1
    40    15    45    1
    41    16    18   ar
    42    17    46    1
    43    17    47    1
    44    18    19   ar
    45    18    48    1
    46    19    22   ar
    47    19    49    1
    48    20    22   ar
    49    20    50    1
    50    21    23    1
    51    21    51    1
    52    21    52    1
    53    22    53    1
    54    23    24   ar
    55    24    25   ar
    56    25    26   ar
    57    25    54    1
    58    26    55    1
    59    27    56    1
    60    27    57    1
    61    27    58    1
@<TRIPOS>MOLECULE
66553195
 58 61 0 0 0
SMALL
GASTEIGER

@<TRIPOS>ATOM
      1 S          -2.2553    0.0960   -3.4928 S.2     1  UNL1       -0.0926
      2 O           3.9947    1.8338   -0.6210 O.3     1  UNL1       -0.3733
      3 O          -4.5663    2.8297   -2.0347 O.3     1  UNL1       -0.4941
      4 N           2.6736   -1.5136   -0.6773 N.ar    1  UNL1       -0.2593
      5 N          -2.3798    0.6689   -0.0216 N.4     1  UNL1        0.2308
      6 C           3.9072    1.0510    0.5757 C.3     1  UNL1        0.0704
      7 C           1.4313    0.5057   -0.0051 C.3     1  UNL1        0.0224
      8 C           2.4527    0.9788    1.0713 C.3     1  UNL1       -0.0124
      9 C           4.8008    1.7382    1.6213 C.3     1  UNL1       -0.0237
     10 C           4.6231   -0.2974    0.4268 C.3     1  UNL1       -0.0237
     11 C           1.6850    1.3950   -1.2530 C.3     1  UNL1       -0.0181
     12 C           6.2268    1.3540    1.2306 C.3     1  UNL1       -0.0504
     13 C           6.1087    0.0588    0.4313 C.3     1  UNL1       -0.0504
     14 C          -0.0007    0.8133    0.4991 C.3     1  UNL1       -0.0013
     15 C           3.1485    1.4020   -1.6812 C.3     1  UNL1        0.0492
     16 C           1.4898   -1.0143   -0.2569 C.ar    1  UNL1        0.0478
     17 C          -1.0428    0.3538   -0.5107 C.3     1  UNL1       -0.0325
     18 C           0.3554   -1.7812   -0.0456 C.ar    1  UNL1       -0.0398
     19 C           0.4416   -3.1489   -0.2805 C.ar    1  UNL1       -0.0586
     20 C           2.7193   -2.8472   -0.8953 C.ar    1  UNL1        0.0279
     21 C          -3.3961    0.2233   -0.9644 C.3     1  UNL1        0.0021
     22 C           1.6425   -3.6999   -0.7135 C.ar    1  UNL1       -0.0436
     23 C          -3.2292    0.8678   -2.3149 C.ar    1  UNL1        0.0756
     24 C          -3.7667    2.0477   -2.7808 C.ar    1  UNL1        0.1353
     25 C          -3.3735    2.3213   -4.1226 C.ar    1  UNL1       -0.0124
     26 C          -2.5508    1.3404   -4.6312 C.ar    1  UNL1       -0.0203
     27 C          -5.0780    4.0263   -2.6384 C.3     1  UNL1        0.0788
     28 H          -2.4602    1.6780    0.1040 H       1  UNL1        0.2017
     29 H          -2.5244    0.1869    0.8656 H       1  UNL1        0.2017
     30 H           2.1628    1.9541    1.4025 H       1  UNL1        0.0302
     31 H           2.4318    0.2502    1.8546 H       1  UNL1        0.0302
     32 H           4.5711    1.3839    2.6045 H       1  UNL1        0.0293
     33 H           4.6591    2.7986    1.6388 H       1  UNL1        0.0293
     34 H           4.3502   -0.7715   -0.4928 H       1  UNL1        0.0293
     35 H           4.3659   -0.9840    1.2061 H       1  UNL1        0.0293
     36 H           1.3901    2.3979   -1.0246 H       1  UNL1        0.0296
     37 H           1.1131    0.9894   -2.0613 H       1  UNL1        0.0296
     38 H           6.8229    1.1982    2.1054 H       1  UNL1        0.0266
     39 H           6.6984    2.1260    0.6592 H       1  UNL1        0.0266
     40 H           6.4591    0.2056   -0.5690 H       1  UNL1        0.0266
     41 H           6.6986   -0.7233    0.8618 H       1  UNL1        0.0266
     42 H          -0.1000    1.8680    0.6496 H       1  UNL1        0.0326
     43 H          -0.1599    0.2879    1.4175 H       1  UNL1        0.0326
     44 H           3.4315    0.4119   -1.9720 H       1  UNL1        0.0560
     45 H           3.2580    2.0824   -2.4997 H       1  UNL1        0.0560
     46 H          -0.8788    0.8537   -1.4425 H       1  UNL1        0.0814
     47 H          -0.9581   -0.7040   -0.6482 H       1  UNL1        0.0814
     48 H          -0.5258   -1.3509    0.2761 H       1  UNL1        0.0636
     49 H          -0.3824   -3.7527   -0.1341 H       1  UNL1        0.0619
     50 H           3.6111   -3.2550   -1.2169 H       1  UNL1        0.0829
     51 H          -4.3613    0.4754   -0.5775 H       1  UNL1        0.0873
     52 H          -3.2942   -0.8348   -1.0867 H       1  UNL1        0.0873
     53 H           1.7291   -4.7124   -0.8938 H       1  UNL1        0.0633
     54 H          -3.6703    3.1564   -4.6515 H       1  UNL1        0.0659
     55 H          -2.1588    1.3540   -5.5857 H       1  UNL1        0.0694
     56 H          -5.6941    4.5456   -1.9343 H       1  UNL1        0.0660
     57 H          -5.6586    3.7709   -3.5002 H       1  UNL1        0.0660
     58 H          -4.2630    4.6549   -2.9309 H       1  UNL1        0.0660
@<TRIPOS>UNITY_ATOM_ATTR
5 1
charge 1
@<TRIPOS>BOND
     1     1    23   ar
     2     1    26   ar
     3     2     6    1
     4     2    15    1
     5     3    24    1
     6     3    27    1
     7     4    16   ar
     8     4    20   ar
     9     5    17    1
    10     5    21    1
    11     5    28    1
    12     5    29    1
    13     6     8    1
    14     6     9    1
    15     6    10    1
    16     7     8    1
    17     7    11    1
    18     7    14    1
    19     7    16    1
    20     8    30    1
    21     8    31    1
    22     9    12    1
    23     9    32    1
    24     9    33    1
    25    10    13    1
    26    10    34    1
    27    10    35    1
    28    11    15    1
    29    11    36    1
    30    11    37    1
    31    12    13    1
    32    12    38    1
    33    12    39    1
    34    13    40    1
    35    13    41    1
    36    14    17    1
    37    14    42    1
    38    14    43    1
    39    15    44    1
    40    15    45    1
    41    16    18   ar
    42    17    46    1
    43    17    47    1
    44    18    19   ar
    45    18    48    1
    46    19    22   ar
    47    19    49    1
    48    20    22   ar
    49    20    50    1
    50    21    23    1
    51    21    51    1
    52    21    52    1
    53    22    53    1
    54    23    24   ar
    55    24    25   ar
    56    25    26   ar
    57    25    54    1
    58    26    55    1
    59    27    56    1
    60    27    57    1
    61    27    58    1
@<TRIPOS>MOLECULE
66553195
 58 61 0 0 0
SMALL
GASTEIGER

@<TRIPOS>ATOM
      1 S          -5.2858    2.0165   -0.2294 S.2     1  UNL1       -0.0926
      2 O           3.9947    1.8338   -0.6210 O.3     1  UNL1       -0.3733
      3 O          -3.3338    3.5425    2.7373 O.3     1  UNL1       -0.4941
      4 N           0.6793   -1.7857    0.5017 N.ar    1  UNL1       -0.2593
      5 N          -2.3798    0.6689   -0.0216 N.4     1  UNL1        0.2308
      6 C           3.9072    1.0510    0.5757 C.3     1  UNL1        0.0704
      7 C           1.4313    0.5057   -0.0051 C.3     1  UNL1        0.0224
      8 C           2.4527    0.9788    1.0713 C.3     1  UNL1       -0.0124
      9 C           4.8008    1.7382    1.6213 C.3     1  UNL1       -0.0237
     10 C           4.6231   -0.2974    0.4268 C.3     1  UNL1       -0.0237
     11 C           1.6850    1.3950   -1.2530 C.3     1  UNL1       -0.0181
     12 C           6.2268    1.3540    1.2306 C.3     1  UNL1       -0.0504
     13 C           6.1087    0.0588    0.4313 C.3     1  UNL1       -0.0504
     14 C          -0.0007    0.8133    0.4991 C.3     1  UNL1       -0.0013
     15 C           3.1485    1.4020   -1.6812 C.3     1  UNL1        0.0492
     16 C           1.4898   -1.0143   -0.2569 C.ar    1  UNL1        0.0478
     17 C          -1.0428    0.3538   -0.5107 C.3     1  UNL1       -0.0325
     18 C           2.3481   -1.5091   -1.2255 C.ar    1  UNL1       -0.0398
     19 C           2.3761   -2.8842   -1.4290 C.ar    1  UNL1       -0.0586
     20 C           0.7340   -3.1176    0.2757 C.ar    1  UNL1        0.0279
     21 C          -2.5388    2.1040    0.1669 C.3     1  UNL1        0.0021
     22 C           1.5567   -3.7107   -0.6683 C.ar    1  UNL1       -0.0436
     23 C          -3.9076    2.4526    0.6884 C.ar    1  UNL1        0.0756
     24 C          -4.2475    3.1040    1.8538 C.ar    1  UNL1        0.1353
     25 C          -5.6580    3.2467    1.9949 C.ar    1  UNL1       -0.0124
     26 C          -6.3425    2.6991    0.9322 C.ar    1  UNL1       -0.0203
     27 C          -3.6592    4.7082    3.5077 C.3     1  UNL1        0.0788
     28 H          -2.5293    0.1964    0.8698 H       1  UNL1        0.2017
     29 H          -3.0620    0.3531   -0.7110 H       1  UNL1        0.2017
     30 H           2.1628    1.9541    1.4025 H       1  UNL1        0.0302
     31 H           2.4318    0.2502    1.8546 H       1  UNL1        0.0302
     32 H           4.5711    1.3839    2.6045 H       1  UNL1        0.0293
     33 H           4.6591    2.7986    1.6388 H       1  UNL1        0.0293
     34 H           4.3502   -0.7715   -0.4928 H       1  UNL1        0.0293
     35 H           4.3659   -0.9840    1.2061 H       1  UNL1        0.0293
     36 H           1.3901    2.3979   -1.0246 H       1  UNL1        0.0296
     37 H           1.1131    0.9894   -2.0613 H       1  UNL1        0.0296
     38 H           6.8229    1.1982    2.1054 H       1  UNL1        0.0266
     39 H           6.6984    2.1260    0.6592 H       1  UNL1        0.0266
     40 H           6.4591    0.2056   -0.5690 H       1  UNL1        0.0266
     41 H           6.6986   -0.7233    0.8618 H       1  UNL1        0.0266
     42 H          -0.1000    1.8680    0.6496 H       1  UNL1        0.0326
     43 H          -0.1599    0.2879    1.4175 H       1  UNL1        0.0326
     44 H           3.4315    0.4119   -1.9720 H       1  UNL1        0.0560
     45 H           3.2580    2.0824   -2.4997 H       1  UNL1        0.0560
     46 H          -0.8788    0.8537   -1.4425 H       1  UNL1        0.0814
     47 H          -0.9581   -0.7040   -0.6482 H       1  UNL1        0.0814
     48 H           2.9477   -0.8769   -1.7786 H       1  UNL1        0.0636
     49 H           3.0026   -3.2898   -2.1417 H       1  UNL1        0.0619
     50 H           0.1256   -3.7300    0.8411 H       1  UNL1        0.0829
     51 H          -2.3909    2.5950   -0.7723 H       1  UNL1        0.0873
     52 H          -1.8169    2.4261    0.8880 H       1  UNL1        0.0873
     53 H           1.5611   -4.7340   -0.8026 H       1  UNL1        0.0633
     54 H          -6.1135    3.7064    2.7988 H       1  UNL1        0.0659
     55 H          -7.3709    2.7001    0.8463 H       1  UNL1        0.0694
     56 H          -2.8465    4.9403    4.1639 H       1  UNL1        0.0660
     57 H          -4.5407    4.5201    4.0843 H       1  UNL1        0.0660
     58 H          -3.8329    5.5337    2.8494 H       1  UNL1        0.0660
@<TRIPOS>UNITY_ATOM_ATTR
5 1
charge 1
@<TRIPOS>BOND
     1     1    23   ar
     2     1    26   ar
     3     2     6    1
     4     2    15    1
     5     3    24    1
     6     3    27    1
     7     4    16   ar
     8     4    20   ar
     9     5    17    1
    10     5    21    1
    11     5    28    1
    12     5    29    1
    13     6     8    1
    14     6     9    1
    15     6    10    1
    16     7     8    1
    17     7    11    1
    18     7    14    1
    19     7    16    1
    20     8    30    1
    21     8    31    1
    22     9    12    1
    23     9    32    1
    24     9    33    1
    25    10    13    1
    26    10    34    1
    27    10    35    1
    28    11    15    1
    29    11    36    1
    30    11    37    1
    31    12    13    1
    32    12    38    1
    33    12    39    1
    34    13    40    1
    35    13    41    1
    36    14    17    1
    37    14    42    1
    38    14    43    1
    39    15    44    1
    40    15    45    1
    41    16    18   ar
    42    17    46    1
    43    17    47    1
    44    18    19   ar
    45    18    48    1
    46    19    22   ar
    47    19    49    1
    48    20    22   ar
    49    20    50    1
    50    21    23    1
    51    21    51    1
    52    21    52    1
    53    22    53    1
    54    23    24   ar
    55    24    25   ar
    56    25    26   ar
    57    25    54    1
    58    26    55    1
    59    27    56    1
    60    27    57    1
    61    27    58    1
@<TRIPOS>MOLECULE
66553195
 58 61 0 0 0
SMALL
GASTEIGER

@<TRIPOS>ATOM
      1 S          -1.3856    2.0432   -2.2657 S.2     1  UNL1       -0.0926
      2 O           3.9947    1.8338   -0.6210 O.3     1  UNL1       -0.3733
      3 O          -3.7946    4.6759   -0.7804 O.3     1  UNL1       -0.4941
      4 N           1.8670   -1.7871    0.7861 N.ar    1  UNL1       -0.2593
      5 N          -1.5373    2.5691    1.2118 N.4     1  UNL1        0.2308
      6 C           3.9072    1.0510    0.5757 C.3     1  UNL1        0.0704
      7 C           1.4313    0.5057   -0.0051 C.3     1  UNL1        0.0224
      8 C           2.4527    0.9788    1.0713 C.3     1  UNL1       -0.0124
      9 C           4.8008    1.7382    1.6213 C.3     1  UNL1       -0.0237
     10 C           4.6231   -0.2974    0.4268 C.3     1  UNL1       -0.0237
     11 C           1.6850    1.3950   -1.2530 C.3     1  UNL1       -0.0181
     12 C           6.2268    1.3540    1.2306 C.3     1  UNL1       -0.0504
     13 C           6.1087    0.0588    0.4313 C.3     1  UNL1       -0.0504
     14 C          -0.0007    0.8133    0.4991 C.3     1  UNL1       -0.0013
     15 C           3.1485    1.4020   -1.6812 C.3     1  UNL1        0.0492
     16 C           1.4898   -1.0143   -0.2569 C.ar    1  UNL1        0.0478
     17 C          -0.1891    2.3072    0.7222 C.3     1  UNL1       -0.0325
     18 C           1.1606   -1.5078   -1.5090 C.ar    1  UNL1       -0.0398
     19 C           1.2221   -2.8832   -1.7031 C.ar    1  UNL1       -0.0586
     20 C           1.9154   -3.1192    0.5598 C.ar    1  UNL1        0.0279
     21 C          -2.5353    2.0995    0.2612 C.3     1  UNL1        0.0021
     22 C           1.6058   -3.7112   -0.6540 C.ar    1  UNL1       -0.0436
     23 C          -2.3886    2.7659   -1.0809 C.ar    1  UNL1        0.0756
     24 C          -2.9663    3.9316   -1.5339 C.ar    1  UNL1        0.1353
     25 C          -2.5803    4.2353   -2.8713 C.ar    1  UNL1       -0.0124
     26 C          -1.7225    3.2902   -3.3897 C.ar    1  UNL1       -0.0203
     27 C          -3.6003    4.6552    0.6409 C.3     1  UNL1        0.0788
     28 H          -1.6536    3.5731    1.3494 H       1  UNL1        0.2017
     29 H          -1.6666    2.0715    2.0928 H       1  UNL1        0.2017
     30 H           2.1628    1.9541    1.4025 H       1  UNL1        0.0302
     31 H           2.4318    0.2502    1.8546 H       1  UNL1        0.0302
     32 H           4.5711    1.3839    2.6045 H       1  UNL1        0.0293
     33 H           4.6591    2.7986    1.6388 H       1  UNL1        0.0293
     34 H           4.3502   -0.7715   -0.4928 H       1  UNL1        0.0293
     35 H           4.3659   -0.9840    1.2061 H       1  UNL1        0.0293
     36 H           1.3901    2.3979   -1.0246 H       1  UNL1        0.0296
     37 H           1.1131    0.9894   -2.0613 H       1  UNL1        0.0296
     38 H           6.8229    1.1982    2.1054 H       1  UNL1        0.0266
     39 H           6.6984    2.1260    0.6592 H       1  UNL1        0.0266
     40 H           6.4591    0.2056   -0.5690 H       1  UNL1        0.0266
     41 H           6.6986   -0.7233    0.8618 H       1  UNL1        0.0266
     42 H          -0.1653    0.2978    1.4221 H       1  UNL1        0.0326
     43 H          -0.7011    0.4874   -0.2413 H       1  UNL1        0.0326
     44 H           3.4315    0.4119   -1.9720 H       1  UNL1        0.0560
     45 H           3.2580    2.0824   -2.4997 H       1  UNL1        0.0560
     46 H           0.5232    2.6510    1.4429 H       1  UNL1        0.0814
     47 H          -0.0440    2.8230   -0.2040 H       1  UNL1        0.0814
     48 H           0.8785   -0.8745   -2.2735 H       1  UNL1        0.0636
     49 H           0.9841   -3.2879   -2.6221 H       1  UNL1        0.0619
     50 H           2.2005   -3.7327    1.3391 H       1  UNL1        0.0829
     51 H          -3.5097    2.3126    0.6488 H       1  UNL1        0.0873
     52 H          -2.3960    1.0472    0.1264 H       1  UNL1        0.0873
     53 H           1.6582   -4.7347   -0.7756 H       1  UNL1        0.0633
     54 H          -2.9053    5.0658   -3.3907 H       1  UNL1        0.0659
     55 H          -1.3293    3.3292   -4.3430 H       1  UNL1        0.0694
     56 H          -4.3250    5.2880    1.1091 H       1  UNL1        0.0660
     57 H          -2.6167    5.0078    0.8715 H       1  UNL1        0.0660
     58 H          -3.7142    3.6544    1.0019 H       1  UNL1        0.0660
@<TRIPOS>UNITY_ATOM_ATTR
5 1
charge 1
@<TRIPOS>BOND
     1     1    23   ar
     2     1    26   ar
     3     2     6    1
     4     2    15    1
     5     3    24    1
     6     3    27    1
     7     4    16   ar
     8     4    20   ar
     9     5    17    1
    10     5    21    1
    11     5    28    1
    12     5    29    1
    13     6     8    1
    14     6     9    1
    15     6    10    1
    16     7     8    1
    17     7    11    1
    18     7    14    1
    19     7    16    1
    20     8    30    1
    21     8    31    1
    22     9    12    1
    23     9    32    1
    24     9    33    1
    25    10    13    1
    26    10    34    1
    27    10    35    1
    28    11    15    1
    29    11    36    1
    30    11    37    1
    31    12    13    1
    32    12    38    1
    33    12    39    1
    34    13    40    1
    35    13    41    1
    36    14    17    1
    37    14    42    1
    38    14    43    1
    39    15    44    1
    40    15    45    1
    41    16    18   ar
    42    17    46    1
    43    17    47    1
    44    18    19   ar
    45    18    48    1
    46    19    22   ar
    47    19    49    1
    48    20    22   ar
    49    20    50    1
    50    21    23    1
    51    21    51    1
    52    21    52    1
    53    22    53    1
    54    23    24   ar
    55    24    25   ar
    56    25    26   ar
    57    25    54    1
    58    26    55    1
    59    27    56    1
    60    27    57    1
    61    27    58    1
@<TRIPOS>MOLECULE
66553195
 58 61 0 0 0
SMALL
GASTEIGER

@<TRIPOS>ATOM
      1 S          -4.2324    3.1140    2.0870 S.2     1  UNL1       -0.0926
      2 O           3.9947    1.8338   -0.6210 O.3     1  UNL1       -0.3733
      3 O          -3.1028    0.8764    5.0294 O.3     1  UNL1       -0.4941
      4 N           1.8670   -1.7871    0.7861 N.ar    1  UNL1       -0.2593
      5 N          -1.5373    2.5691    1.2118 N.4     1  UNL1        0.2308
      6 C           3.9072    1.0510    0.5757 C.3     1  UNL1        0.0704
      7 C           1.4313    0.5057   -0.0051 C.3     1  UNL1        0.0224
      8 C           2.4527    0.9788    1.0713 C.3     1  UNL1       -0.0124
      9 C           4.8008    1.7382    1.6213 C.3     1  UNL1       -0.0237
     10 C           4.6231   -0.2974    0.4268 C.3     1  UNL1       -0.0237
     11 C           1.6850    1.3950   -1.2530 C.3     1  UNL1       -0.0181
     12 C           6.2268    1.3540    1.2306 C.3     1  UNL1       -0.0504
     13 C           6.1087    0.0588    0.4313 C.3     1  UNL1       -0.0504
     14 C          -0.0007    0.8133    0.4991 C.3     1  UNL1       -0.0013
     15 C           3.1485    1.4020   -1.6812 C.3     1  UNL1        0.0492
     16 C           1.4898   -1.0143   -0.2569 C.ar    1  UNL1        0.0478
     17 C          -0.1891    2.3072    0.7222 C.3     1  UNL1       -0.0325
     18 C           1.1606   -1.5078   -1.5090 C.ar    1  UNL1       -0.0398
     19 C           1.2221   -2.8832   -1.7031 C.ar    1  UNL1       -0.0586
     20 C           1.9154   -3.1192    0.5598 C.ar    1  UNL1        0.0279
     21 C          -1.7699    1.8924    2.4800 C.3     1  UNL1        0.0021
     22 C           1.6058   -3.7112   -0.6540 C.ar    1  UNL1       -0.0436
     23 C          -3.1629    2.1346    2.9975 C.ar    1  UNL1        0.0756
     24 C          -3.7481    1.6663    4.1534 C.ar    1  UNL1        0.1353
     25 C          -5.0922    2.1177    4.2933 C.ar    1  UNL1       -0.0124
     26 C          -5.4832    2.9135    3.2390 C.ar    1  UNL1       -0.0203
     27 C          -1.6796    1.0230    5.1344 C.3     1  UNL1        0.0788
     28 H          -2.2130    2.2335    0.5254 H       1  UNL1        0.2017
     29 H          -1.6431    3.5736    1.3541 H       1  UNL1        0.2017
     30 H           2.1628    1.9541    1.4025 H       1  UNL1        0.0302
     31 H           2.4318    0.2502    1.8546 H       1  UNL1        0.0302
     32 H           4.5711    1.3839    2.6045 H       1  UNL1        0.0293
     33 H           4.6591    2.7986    1.6388 H       1  UNL1        0.0293
     34 H           4.3502   -0.7715   -0.4928 H       1  UNL1        0.0293
     35 H           4.3659   -0.9840    1.2061 H       1  UNL1        0.0293
     36 H           1.3901    2.3979   -1.0246 H       1  UNL1        0.0296
     37 H           1.1131    0.9894   -2.0613 H       1  UNL1        0.0296
     38 H           6.8229    1.1982    2.1054 H       1  UNL1        0.0266
     39 H           6.6984    2.1260    0.6592 H       1  UNL1        0.0266
     40 H           6.4591    0.2056   -0.5690 H       1  UNL1        0.0266
     41 H           6.6986   -0.7233    0.8618 H       1  UNL1        0.0266
     42 H          -0.1653    0.2978    1.4221 H       1  UNL1        0.0326
     43 H          -0.7011    0.4874   -0.2413 H       1  UNL1        0.0326
     44 H           3.4315    0.4119   -1.9720 H       1  UNL1        0.0560
     45 H           3.2580    2.0824   -2.4997 H       1  UNL1        0.0560
     46 H           0.5232    2.6510    1.4429 H       1  UNL1        0.0814
     47 H          -0.0440    2.8230   -0.2040 H       1  UNL1        0.0814
     48 H           0.8785   -0.8745   -2.2735 H       1  UNL1        0.0636
     49 H           0.9841   -3.2879   -2.6221 H       1  UNL1        0.0619
     50 H           2.2005   -3.7327    1.3391 H       1  UNL1        0.0829
     51 H          -1.0655    2.2544    3.1997 H       1  UNL1        0.0873
     52 H          -1.6527    0.8407    2.3214 H       1  UNL1        0.0873
     53 H           1.6582   -4.7347   -0.7756 H       1  UNL1        0.0633
     54 H          -5.7013    1.8767    5.0908 H       1  UNL1        0.0659
     55 H          -6.4196    3.3388    3.1536 H       1  UNL1        0.0694
     56 H          -1.3032    0.3364    5.8637 H       1  UNL1        0.0660
     57 H          -1.4451    2.0237    5.4321 H       1  UNL1        0.0660
     58 H          -1.2289    0.8182    4.1858 H       1  UNL1        0.0660
@<TRIPOS>UNITY_ATOM_ATTR
5 1
charge 1
@<TRIPOS>BOND
     1     1    23   ar
     2     1    26   ar
     3     2     6    1
     4     2    15    1
     5     3    24    1
     6     3    27    1
     7     4    16   ar
     8     4    20   ar
     9     5    17    1
    10     5    21    1
    11     5    28    1
    12     5    29    1
    13     6     8    1
    14     6     9    1
    15     6    10    1
    16     7     8    1
    17     7    11    1
    18     7    14    1
    19     7    16    1
    20     8    30    1
    21     8    31    1
    22     9    12    1
    23     9    32    1
    24     9    33    1
    25    10    13    1
    26    10    34    1
    27    10    35    1
    28    11    15    1
    29    11    36    1
    30    11    37    1
    31    12    13    1
    32    12    38    1
    33    12    39    1
    34    13    40    1
    35    13    41    1
    36    14    17    1
    37    14    42    1
    38    14    43    1
    39    15    44    1
    40    15    45    1
    41    16    18   ar
    42    17    46    1
    43    17    47    1
    44    18    19   ar
    45    18    48    1
    46    19    22   ar
    47    19    49    1
    48    20    22   ar
    49    20    50    1
    50    21    23    1
    51    21    51    1
    52    21    52    1
    53    22    53    1
    54    23    24   ar
    55    24    25   ar
    56    25    26   ar
    57    25    54    1
    58    26    55    1
    59    27    56    1
    60    27    57    1
    61    27    58    1
@<TRIPOS>MOLECULE
66553195
 58 61 0 0 0
SMALL
GASTEIGER

@<TRIPOS>ATOM
      1 S          -1.3665    5.3004    3.8385 S.2     1  UNL1       -0.0926
      2 O           3.9947    1.8338   -0.6210 O.3     1  UNL1       -0.3733
      3 O           1.3009    4.0838    1.3196 O.3     1  UNL1       -0.4941
      4 N           1.1728   -1.4348   -1.5019 N.ar    1  UNL1       -0.2593
      5 N          -1.5373    2.5691    1.2118 N.4     1  UNL1        0.2308
      6 C           3.9072    1.0510    0.5757 C.3     1  UNL1        0.0704
      7 C           1.4313    0.5057   -0.0051 C.3     1  UNL1        0.0224
      8 C           2.4527    0.9788    1.0713 C.3     1  UNL1       -0.0124
      9 C           4.8008    1.7382    1.6213 C.3     1  UNL1       -0.0237
     10 C           4.6231   -0.2974    0.4268 C.3     1  UNL1       -0.0237
     11 C           1.6850    1.3950   -1.2530 C.3     1  UNL1       -0.0181
     12 C           6.2268    1.3540    1.2306 C.3     1  UNL1       -0.0504
     13 C           6.1087    0.0588    0.4313 C.3     1  UNL1       -0.0504
     14 C          -0.0007    0.8133    0.4991 C.3     1  UNL1       -0.0013
     15 C           3.1485    1.4020   -1.6812 C.3     1  UNL1        0.0492
     16 C           1.4898   -1.0143   -0.2569 C.ar    1  UNL1        0.0478
     17 C          -0.1891    2.3072    0.7222 C.3     1  UNL1       -0.0325
     18 C           1.8563   -1.8599    0.7777 C.ar    1  UNL1       -0.0398
     19 C           1.9006   -3.2250    0.5177 C.ar    1  UNL1       -0.0586
     20 C           1.2269   -2.7685   -1.7172 C.ar    1  UNL1        0.0279
     21 C          -1.7472    3.9952    1.4173 C.3     1  UNL1        0.0021
     22 C           1.5815   -3.6961   -0.7510 C.ar    1  UNL1       -0.0436
     23 C          -0.7708    4.5684    2.4098 C.ar    1  UNL1        0.0756
     24 C           0.6052    4.5991    2.3482 C.ar    1  UNL1        0.1353
     25 C           1.1776    5.2320    3.4891 C.ar    1  UNL1       -0.0124
     26 C           0.2177    5.6608    4.3792 C.ar    1  UNL1       -0.0203
     27 C           2.5573    4.6947    0.9936 C.3     1  UNL1        0.0788
     28 H          -1.6719    2.0807    2.0971 H       1  UNL1        0.2017
     29 H          -2.2066    2.2379    0.5170 H       1  UNL1        0.2017
     30 H           2.1628    1.9541    1.4025 H       1  UNL1        0.0302
     31 H           2.4318    0.2502    1.8546 H       1  UNL1        0.0302
     32 H           4.5711    1.3839    2.6045 H       1  UNL1        0.0293
     33 H           4.6591    2.7986    1.6388 H       1  UNL1        0.0293
     34 H           4.3502   -0.7715   -0.4928 H       1  UNL1        0.0293
     35 H           4.3659   -0.9840    1.2061 H       1  UNL1        0.0293
     36 H           1.3901    2.3979   -1.0246 H       1  UNL1        0.0296
     37 H           1.1131    0.9894   -2.0613 H       1  UNL1        0.0296
     38 H           6.8229    1.1982    2.1054 H       1  UNL1        0.0266
     39 H           6.6984    2.1260    0.6592 H       1  UNL1        0.0266
     40 H           6.4591    0.2056   -0.5690 H       1  UNL1        0.0266
     41 H           6.6986   -0.7233    0.8618 H       1  UNL1        0.0266
     42 H          -0.1653    0.2978    1.4221 H       1  UNL1        0.0326
     43 H          -0.7011    0.4874   -0.2413 H       1  UNL1        0.0326
     44 H           3.4315    0.4119   -1.9720 H       1  UNL1        0.0560
     45 H           3.2580    2.0824   -2.4997 H       1  UNL1        0.0560
     46 H           0.5232    2.6510    1.4429 H       1  UNL1        0.0814
     47 H          -0.0440    2.8230   -0.2040 H       1  UNL1        0.0814
     48 H           2.0890   -1.4881    1.7119 H       1  UNL1        0.0636
     49 H           2.1692   -3.8860    1.2633 H       1  UNL1        0.0619
     50 H           0.9896   -3.1170   -2.6591 H       1  UNL1        0.0829
     51 H          -2.7415    4.1498    1.7813 H       1  UNL1        0.0873
     52 H          -1.5983    4.4910    0.4809 H       1  UNL1        0.0873
     53 H           1.6078   -4.7050   -0.9662 H       1  UNL1        0.0633
     54 H           2.1923    5.3549    3.6319 H       1  UNL1        0.0659
     55 H           0.4284    6.1425    5.2672 H       1  UNL1        0.0694
     56 H           2.9963    4.1853    0.1613 H       1  UNL1        0.0660
     57 H           3.2135    4.6326    1.8365 H       1  UNL1        0.0660
     58 H           2.3991    5.7221    0.7397 H       1  UNL1        0.0660
@<TRIPOS>UNITY_ATOM_ATTR
5 1
charge 1
@<TRIPOS>BOND
     1     1    23   ar
     2     1    26   ar
     3     2     6    1
     4     2    15    1
     5     3    24    1
     6     3    27    1
     7     4    16   ar
     8     4    20   ar
     9     5    17    1
    10     5    21    1
    11     5    28    1
    12     5    29    1
    13     6     8    1
    14     6     9    1
    15     6    10    1
    16     7     8    1
    17     7    11    1
    18     7    14    1
    19     7    16    1
    20     8    30    1
    21     8    31    1
    22     9    12    1
    23     9    32    1
    24     9    33    1
    25    10    13    1
    26    10    34    1
    27    10    35    1
    28    11    15    1
    29    11    36    1
    30    11    37    1
    31    12    13    1
    32    12    38    1
    33    12    39    1
    34    13    40    1
    35    13    41    1
    36    14    17    1
    37    14    42    1
    38    14    43    1
    39    15    44    1
    40    15    45    1
    41    16    18   ar
    42    17    46    1
    43    17    47    1
    44    18    19   ar
    45    18    48    1
    46    19    22   ar
    47    19    49    1
    48    20    22   ar
    49    20    50    1
    50    21    23    1
    51    21    51    1
    52    21    52    1
    53    22    53    1
    54    23    24   ar
    55    24    25   ar
    56    25    26   ar
    57    25    54    1
    58    26    55    1
    59    27    56    1
    60    27    57    1
    61    27    58    1
@<TRIPOS>MOLECULE
66553195
 58 61 0 0 0
SMALL
GASTEIGER

@<TRIPOS>ATOM
      1 S          -3.7130    3.1662   -2.1142 S.2     1  UNL1       -0.0926
      2 O           3.9947    1.8338   -0.6210 O.3     1  UNL1       -0.3733
      3 O           0.0027    3.2688   -1.0546 O.3     1  UNL1       -0.4941
      4 N           2.6736   -1.5136   -0.6773 N.ar    1  UNL1       -0.2593
      5 N          -2.3798    0.6689   -0.0216 N.4     1  UNL1        0.2308
      6 C           3.9072    1.0510    0.5757 C.3     1  UNL1        0.0704
      7 C           1.4313    0.5057   -0.0051 C.3     1  UNL1        0.0224
      8 C           2.4527    0.9788    1.0713 C.3     1  UNL1       -0.0124
      9 C           4.8008    1.7382    1.6213 C.3     1  UNL1       -0.0237
     10 C           4.6231   -0.2974    0.4268 C.3     1  UNL1       -0.0237
     11 C           1.6850    1.3950   -1.2530 C.3     1  UNL1       -0.0181
     12 C           6.2268    1.3540    1.2306 C.3     1  UNL1       -0.0504
     13 C           6.1087    0.0588    0.4313 C.3     1  UNL1       -0.0504
     14 C          -0.0007    0.8133    0.4991 C.3     1  UNL1       -0.0013
     15 C           3.1485    1.4020   -1.6812 C.3     1  UNL1        0.0492
     16 C           1.4898   -1.0143   -0.2569 C.ar    1  UNL1        0.0478
     17 C          -1.0428    0.3538   -0.5107 C.3     1  UNL1       -0.0325
     18 C           0.3554   -1.7812   -0.0456 C.ar    1  UNL1       -0.0398
     19 C           0.4416   -3.1489   -0.2805 C.ar    1  UNL1       -0.0586
     20 C           2.7193   -2.8472   -0.8953 C.ar    1  UNL1        0.0279
     21 C          -2.5388    2.1040    0.1669 C.3     1  UNL1        0.0021
     22 C           1.6425   -3.6999   -0.7135 C.ar    1  UNL1       -0.0436
     23 C          -2.3523    2.8627   -1.1202 C.ar    1  UNL1        0.0756
     24 C          -1.1943    3.3818   -1.6564 C.ar    1  UNL1        0.1353
     25 C          -1.4275    4.0374   -2.8996 C.ar    1  UNL1       -0.0124
     26 C          -2.7547    3.9945   -3.2663 C.ar    1  UNL1       -0.0203
     27 C           1.1332    3.8668   -1.7045 C.3     1  UNL1        0.0788
     28 H          -2.5293    0.1964    0.8698 H       1  UNL1        0.2017
     29 H          -3.0620    0.3531   -0.7110 H       1  UNL1        0.2017
     30 H           2.1628    1.9541    1.4025 H       1  UNL1        0.0302
     31 H           2.4318    0.2502    1.8546 H       1  UNL1        0.0302
     32 H           4.5711    1.3839    2.6045 H       1  UNL1        0.0293
     33 H           4.6591    2.7986    1.6388 H       1  UNL1        0.0293
     34 H           4.3502   -0.7715   -0.4928 H       1  UNL1        0.0293
     35 H           4.3659   -0.9840    1.2061 H       1  UNL1        0.0293
     36 H           1.3901    2.3979   -1.0246 H       1  UNL1        0.0296
     37 H           1.1131    0.9894   -2.0613 H       1  UNL1        0.0296
     38 H           6.8229    1.1982    2.1054 H       1  UNL1        0.0266
     39 H           6.6984    2.1260    0.6592 H       1  UNL1        0.0266
     40 H           6.4591    0.2056   -0.5690 H       1  UNL1        0.0266
     41 H           6.6986   -0.7233    0.8618 H       1  UNL1        0.0266
     42 H          -0.1000    1.8680    0.6496 H       1  UNL1        0.0326
     43 H          -0.1599    0.2879    1.4175 H       1  UNL1        0.0326
     44 H           3.4315    0.4119   -1.9720 H       1  UNL1        0.0560
     45 H           3.2580    2.0824   -2.4997 H       1  UNL1        0.0560
     46 H          -0.8788    0.8537   -1.4425 H       1  UNL1        0.0814
     47 H          -0.9581   -0.7040   -0.6482 H       1  UNL1        0.0814
     48 H          -0.5258   -1.3509    0.2761 H       1  UNL1        0.0636
     49 H          -0.3824   -3.7527   -0.1341 H       1  UNL1        0.0619
     50 H           3.6111   -3.2550   -1.2169 H       1  UNL1        0.0829
     51 H          -1.8129    2.4424    0.8765 H       1  UNL1        0.0873
     52 H          -3.5335    2.2845    0.5175 H       1  UNL1        0.0873
     53 H           1.7291   -4.7124   -0.8938 H       1  UNL1        0.0633
     54 H          -0.6889    4.4911   -3.4597 H       1  UNL1        0.0659
     55 H          -3.1275    4.4124   -4.1332 H       1  UNL1        0.0694
     56 H           2.0119    3.6996   -1.1172 H       1  UNL1        0.0660
     57 H           0.9691    4.9190   -1.8091 H       1  UNL1        0.0660
     58 H           1.2620    3.4280   -2.6718 H       1  UNL1        0.0660
@<TRIPOS>UNITY_ATOM_ATTR
5 1
charge 1
@<TRIPOS>BOND
     1     1    23   ar
     2     1    26   ar
     3     2     6    1
     4     2    15    1
     5     3    24    1
     6     3    27    1
     7     4    16   ar
     8     4    20   ar
     9     5    17    1
    10     5    21    1
    11     5    28    1
    12     5    29    1
    13     6     8    1
    14     6     9    1
    15     6    10    1
    16     7     8    1
    17     7    11    1
    18     7    14    1
    19     7    16    1
    20     8    30    1
    21     8    31    1
    22     9    12    1
    23     9    32    1
    24     9    33    1
    25    10    13    1
    26    10    34    1
    27    10    35    1
    28    11    15    1
    29    11    36    1
    30    11    37    1
    31    12    13    1
    32    12    38    1
    33    12    39    1
    34    13    40    1
    35    13    41    1
    36    14    17    1
    37    14    42    1
    38    14    43    1
    39    15    44    1
    40    15    45    1
    41    16    18   ar
    42    17    46    1
    43    17    47    1
    44    18    19   ar
    45    18    48    1
    46    19    22   ar
    47    19    49    1
    48    20    22   ar
    49    20    50    1
    50    21    23    1
    51    21    51    1
    52    21    52    1
    53    22    53    1
    54    23    24   ar
    55    24    25   ar
    56    25    26   ar
    57    25    54    1
    58    26    55    1
    59    27    56    1
    60    27    57    1
    61    27    58    1
@<TRIPOS>MOLECULE
66553195
 58 61 0 0 0
SMALL
GASTEIGER

@<TRIPOS>ATOM
      1 S          -3.4815    2.3632   -2.3360 S.2     1  UNL1       -0.0926
      2 O           3.9947    1.8338   -0.6210 O.3     1  UNL1       -0.3733
      3 O          -0.5011    4.1742   -0.6693 O.3     1  UNL1       -0.4941
      4 N           0.3359   -1.6114   -0.6301 N.ar    1  UNL1       -0.2593
      5 N          -1.5373    2.5691    1.2118 N.4     1  UNL1        0.2308
      6 C           3.9072    1.0510    0.5757 C.3     1  UNL1        0.0704
      7 C           1.4313    0.5057   -0.0051 C.3     1  UNL1        0.0224
      8 C           2.4527    0.9788    1.0713 C.3     1  UNL1       -0.0124
      9 C           4.8008    1.7382    1.6213 C.3     1  UNL1       -0.0237
     10 C           4.6231   -0.2974    0.4268 C.3     1  UNL1       -0.0237
     11 C           1.6850    1.3950   -1.2530 C.3     1  UNL1       -0.0181
     12 C           6.2268    1.3540    1.2306 C.3     1  UNL1       -0.0504
     13 C           6.1087    0.0588    0.4313 C.3     1  UNL1       -0.0504
     14 C          -0.0007    0.8133    0.4991 C.3     1  UNL1       -0.0013
     15 C           3.1485    1.4020   -1.6812 C.3     1  UNL1        0.0492
     16 C           1.4898   -1.0143   -0.2569 C.ar    1  UNL1        0.0478
     17 C          -0.1891    2.3072    0.7222 C.3     1  UNL1       -0.0325
     18 C           2.6922   -1.6832   -0.0944 C.ar    1  UNL1       -0.0398
     19 C           2.7117   -3.0533   -0.3305 C.ar    1  UNL1       -0.0586
     20 C           0.3934   -2.9441   -0.8507 C.ar    1  UNL1        0.0279
     21 C          -2.5353    2.0995    0.2612 C.3     1  UNL1        0.0021
     22 C           1.5446   -3.7033   -0.7163 C.ar    1  UNL1       -0.0436
     23 C          -2.3886    2.7659   -1.0809 C.ar    1  UNL1        0.0756
     24 C          -1.4616    3.7023   -1.4832 C.ar    1  UNL1        0.1353
     25 C          -1.6515    4.0943   -2.8397 C.ar    1  UNL1       -0.0124
     26 C          -2.7161    3.4428   -3.4226 C.ar    1  UNL1       -0.0203
     27 C          -0.0475    5.5181   -0.8846 C.3     1  UNL1        0.0788
     28 H          -1.6536    3.5731    1.3494 H       1  UNL1        0.2017
     29 H          -1.6666    2.0715    2.0928 H       1  UNL1        0.2017
     30 H           2.1628    1.9541    1.4025 H       1  UNL1        0.0302
     31 H           2.4318    0.2502    1.8546 H       1  UNL1        0.0302
     32 H           4.5711    1.3839    2.6045 H       1  UNL1        0.0293
     33 H           4.6591    2.7986    1.6388 H       1  UNL1        0.0293
     34 H           4.3502   -0.7715   -0.4928 H       1  UNL1        0.0293
     35 H           4.3659   -0.9840    1.2061 H       1  UNL1        0.0293
     36 H           1.3901    2.3979   -1.0246 H       1  UNL1        0.0296
     37 H           1.1131    0.9894   -2.0613 H       1  UNL1        0.0296
     38 H           6.8229    1.1982    2.1054 H       1  UNL1        0.0266
     39 H           6.6984    2.1260    0.6592 H       1  UNL1        0.0266
     40 H           6.4591    0.2056   -0.5690 H       1  UNL1        0.0266
     41 H           6.6986   -0.7233    0.8618 H       1  UNL1        0.0266
     42 H          -0.1653    0.2978    1.4221 H       1  UNL1        0.0326
     43 H          -0.7011    0.4874   -0.2413 H       1  UNL1        0.0326
     44 H           3.4315    0.4119   -1.9720 H       1  UNL1        0.0560
     45 H           3.2580    2.0824   -2.4997 H       1  UNL1        0.0560
     46 H           0.5232    2.6510    1.4429 H       1  UNL1        0.0814
     47 H          -0.0440    2.8230   -0.2040 H       1  UNL1        0.0814
     48 H           3.5465   -1.1804    0.1929 H       1  UNL1        0.0636
     49 H           3.5888   -3.5857   -0.2197 H       1  UNL1        0.0619
     50 H          -0.4734   -3.4255   -1.1367 H       1  UNL1        0.0829
     51 H          -3.5097    2.3126    0.6488 H       1  UNL1        0.0873
     52 H          -2.3960    1.0472    0.1264 H       1  UNL1        0.0873
     53 H           1.5362   -4.7193   -0.8968 H       1  UNL1        0.0633
     54 H          -1.0607    4.7853   -3.3283 H       1  UNL1        0.0659
     55 H          -3.0169    3.5881   -4.3990 H       1  UNL1        0.0694
     56 H           0.7118    5.7570   -0.1696 H       1  UNL1        0.0660
     57 H          -0.8692    6.1942   -0.7719 H       1  UNL1        0.0660
     58 H           0.3532    5.6052   -1.8729 H       1  UNL1        0.0660
@<TRIPOS>UNITY_ATOM_ATTR
5 1
charge 1
@<TRIPOS>BOND
     1     1    23   ar
     2     1    26   ar
     3     2     6    1
     4     2    15    1
     5     3    24    1
     6     3    27    1
     7     4    16   ar
     8     4    20   ar
     9     5    17    1
    10     5    21    1
    11     5    28    1
    12     5    29    1
    13     6     8    1
    14     6     9    1
    15     6    10    1
    16     7     8    1
    17     7    11    1
    18     7    14    1
    19     7    16    1
    20     8    30    1
    21     8    31    1
    22     9    12    1
    23     9    32    1
    24     9    33    1
    25    10    13    1
    26    10    34    1
    27    10    35    1
    28    11    15    1
    29    11    36    1
    30    11    37    1
    31    12    13    1
    32    12    38    1
    33    12    39    1
    34    13    40    1
    35    13    41    1
    36    14    17    1
    37    14    42    1
    38    14    43    1
    39    15    44    1
    40    15    45    1
    41    16    18   ar
    42    17    46    1
    43    17    47    1
    44    18    19   ar
    45    18    48    1
    46    19    22   ar
    47    19    49    1
    48    20    22   ar
    49    20    50    1
    50    21    23    1
    51    21    51    1
    52    21    52    1
    53    22    53    1
    54    23    24   ar
    55    24    25   ar
    56    25    26   ar
    57    25    54    1
    58    26    55    1
    59    27    56    1
    60    27    57    1
    61    27    58    1
@<TRIPOS>MOLECULE
66553195
 58 61 0 0 0
SMALL
GASTEIGER

@<TRIPOS>ATOM
      1 S          -4.7388    1.3227    1.6704 S.2     1  UNL1       -0.0926
      2 O           3.9947    1.8338   -0.6210 O.3     1  UNL1       -0.3733
      3 O          -4.1930    4.6339   -0.2475 O.3     1  UNL1       -0.4941
      4 N           0.6793   -1.7857    0.5017 N.ar    1  UNL1       -0.2593
      5 N          -2.3798    0.6689   -0.0216 N.4     1  UNL1        0.2308
      6 C           3.9072    1.0510    0.5757 C.3     1  UNL1        0.0704
      7 C           1.4313    0.5057   -0.0051 C.3     1  UNL1        0.0224
      8 C           2.4527    0.9788    1.0713 C.3     1  UNL1       -0.0124
      9 C           4.8008    1.7382    1.6213 C.3     1  UNL1       -0.0237
     10 C           4.6231   -0.2974    0.4268 C.3     1  UNL1       -0.0237
     11 C           1.6850    1.3950   -1.2530 C.3     1  UNL1       -0.0181
     12 C           6.2268    1.3540    1.2306 C.3     1  UNL1       -0.0504
     13 C           6.1087    0.0588    0.4313 C.3     1  UNL1       -0.0504
     14 C          -0.0007    0.8133    0.4991 C.3     1  UNL1       -0.0013
     15 C           3.1485    1.4020   -1.6812 C.3     1  UNL1        0.0492
     16 C           1.4898   -1.0143   -0.2569 C.ar    1  UNL1        0.0478
     17 C          -1.0428    0.3538   -0.5107 C.3     1  UNL1       -0.0325
     18 C           2.3481   -1.5091   -1.2255 C.ar    1  UNL1       -0.0398
     19 C           2.3761   -2.8842   -1.4290 C.ar    1  UNL1       -0.0586
     20 C           0.7340   -3.1176    0.2757 C.ar    1  UNL1        0.0279
     21 C          -2.5388    2.1040    0.1669 C.3     1  UNL1        0.0021
     22 C           1.5567   -3.7107   -0.6683 C.ar    1  UNL1       -0.0436
     23 C          -3.9076    2.4526    0.6884 C.ar    1  UNL1        0.0756
     24 C          -4.6400    3.6025    0.4901 C.ar    1  UNL1        0.1353
     25 C          -5.9001    3.5550    1.1532 C.ar    1  UNL1       -0.0124
     26 C          -6.0829    2.3710    1.8331 C.ar    1  UNL1       -0.0203
     27 C          -2.8952    4.5105   -0.8464 C.3     1  UNL1        0.0788
     28 H          -2.5293    0.1964    0.8698 H       1  UNL1        0.2017
     29 H          -3.0620    0.3531   -0.7110 H       1  UNL1        0.2017
     30 H           2.1628    1.9541    1.4025 H       1  UNL1        0.0302
     31 H           2.4318    0.2502    1.8546 H       1  UNL1        0.0302
     32 H           4.5711    1.3839    2.6045 H       1  UNL1        0.0293
     33 H           4.6591    2.7986    1.6388 H       1  UNL1        0.0293
     34 H           4.3502   -0.7715   -0.4928 H       1  UNL1        0.0293
     35 H           4.3659   -0.9840    1.2061 H       1  UNL1        0.0293
     36 H           1.3901    2.3979   -1.0246 H       1  UNL1        0.0296
     37 H           1.1131    0.9894   -2.0613 H       1  UNL1        0.0296
     38 H           6.8229    1.1982    2.1054 H       1  UNL1        0.0266
     39 H           6.6984    2.1260    0.6592 H       1  UNL1        0.0266
     40 H           6.4591    0.2056   -0.5690 H       1  UNL1        0.0266
     41 H           6.6986   -0.7233    0.8618 H       1  UNL1        0.0266
     42 H          -0.1000    1.8680    0.6496 H       1  UNL1        0.0326
     43 H          -0.1599    0.2879    1.4175 H       1  UNL1        0.0326
     44 H           3.4315    0.4119   -1.9720 H       1  UNL1        0.0560
     45 H           3.2580    2.0824   -2.4997 H       1  UNL1        0.0560
     46 H          -0.8788    0.8537   -1.4425 H       1  UNL1        0.0814
     47 H          -0.9581   -0.7040   -0.6482 H       1  UNL1        0.0814
     48 H           2.9477   -0.8769   -1.7786 H       1  UNL1        0.0636
     49 H           3.0026   -3.2898   -2.1417 H       1  UNL1        0.0619
     50 H           0.1256   -3.7300    0.8411 H       1  UNL1        0.0829
     51 H          -2.3909    2.5950   -0.7723 H       1  UNL1        0.0873
     52 H          -1.8169    2.4261    0.8880 H       1  UNL1        0.0873
     53 H           1.5611   -4.7340   -0.8026 H       1  UNL1        0.0633
     54 H          -6.5945    4.3181    1.1273 H       1  UNL1        0.0659
     55 H          -6.9300    2.1426    2.3765 H       1  UNL1        0.0694
     56 H          -2.6717    5.3988   -1.3995 H       1  UNL1        0.0660
     57 H          -2.8854    3.6678   -1.5058 H       1  UNL1        0.0660
     58 H          -2.1606    4.3728   -0.0807 H       1  UNL1        0.0660
@<TRIPOS>UNITY_ATOM_ATTR
5 1
charge 1
@<TRIPOS>BOND
     1     1    23   ar
     2     1    26   ar
     3     2     6    1
     4     2    15    1
     5     3    24    1
     6     3    27    1
     7     4    16   ar
     8     4    20   ar
     9     5    17    1
    10     5    21    1
    11     5    28    1
    12     5    29    1
    13     6     8    1
    14     6     9    1
    15     6    10    1
    16     7     8    1
    17     7    11    1
    18     7    14    1
    19     7    16    1
    20     8    30    1
    21     8    31    1
    22     9    12    1
    23     9    32    1
    24     9    33    1
    25    10    13    1
    26    10    34    1
    27    10    35    1
    28    11    15    1
    29    11    36    1
    30    11    37    1
    31    12    13    1
    32    12    38    1
    33    12    39    1
    34    13    40    1
    35    13    41    1
    36    14    17    1
    37    14    42    1
    38    14    43    1
    39    15    44    1
    40    15    45    1
    41    16    18   ar
    42    17    46    1
    43    17    47    1
    44    18    19   ar
    45    18    48    1
    46    19    22   ar
    47    19    49    1
    48    20    22   ar
    49    20    50    1
    50    21    23    1
    51    21    51    1
    52    21    52    1
    53    22    53    1
    54    23    24   ar
    55    24    25   ar
    56    25    26   ar
    57    25    54    1
    58    26    55    1
    59    27    56    1
    60    27    57    1
    61    27    58    1
@<TRIPOS>MOLECULE
66553195
 58 61 0 0 0
SMALL
GASTEIGER

@<TRIPOS>ATOM
      1 S          -1.9210   -4.1024   -0.7160 S.2     1  UNL1       -0.0926
      2 O           3.9947    1.8338   -0.6210 O.3     1  UNL1       -0.3733
      3 O           0.7596   -3.8323    2.0555 O.3     1  UNL1       -0.4941
      4 N           2.3917   -1.7141    0.4672 N.ar    1  UNL1       -0.2593
      5 N          -0.1319   -1.3376    1.6429 N.4     1  UNL1        0.2308
      6 C           3.9072    1.0510    0.5757 C.3     1  UNL1        0.0704
      7 C           1.4313    0.5057   -0.0051 C.3     1  UNL1        0.0224
      8 C           2.4527    0.9788    1.0713 C.3     1  UNL1       -0.0124
      9 C           4.8008    1.7382    1.6213 C.3     1  UNL1       -0.0237
     10 C           4.6231   -0.2974    0.4268 C.3     1  UNL1       -0.0237
     11 C           1.6850    1.3950   -1.2530 C.3     1  UNL1       -0.0181
     12 C           6.2268    1.3540    1.2306 C.3     1  UNL1       -0.0504
     13 C           6.1087    0.0588    0.4313 C.3     1  UNL1       -0.0504
     14 C          -0.0007    0.8133    0.4991 C.3     1  UNL1       -0.0013
     15 C           3.1485    1.4020   -1.6812 C.3     1  UNL1        0.0492
     16 C           1.4898   -1.0143   -0.2569 C.ar    1  UNL1        0.0478
     17 C          -0.2774    0.1027    1.8165 C.3     1  UNL1       -0.0325
     18 C           0.6363   -1.5809   -1.1898 C.ar    1  UNL1       -0.0398
     19 C           0.7132   -2.9543   -1.3924 C.ar    1  UNL1       -0.0586
     20 C           2.4377   -3.0466    0.2430 C.ar    1  UNL1        0.0279
     21 C          -1.0532   -1.8344    0.6306 C.3     1  UNL1        0.0021
     22 C           1.6284   -3.7083   -0.6662 C.ar    1  UNL1       -0.0436
     23 C          -0.9331   -3.3238    0.4457 C.ar    1  UNL1        0.0756
     24 C          -0.1070   -4.2112    1.0999 C.ar    1  UNL1        0.1353
     25 C          -0.2876   -5.5479    0.6411 C.ar    1  UNL1       -0.0124
     26 C          -1.2447   -5.6314   -0.3462 C.ar    1  UNL1       -0.0203
     27 C           1.0639   -4.7778    3.0907 C.3     1  UNL1        0.0788
     28 H          -0.3276   -1.8024    2.5295 H       1  UNL1        0.2017
     29 H           0.8221   -1.5348    1.3403 H       1  UNL1        0.2017
     30 H           2.1628    1.9541    1.4025 H       1  UNL1        0.0302
     31 H           2.4318    0.2502    1.8546 H       1  UNL1        0.0302
     32 H           4.5711    1.3839    2.6045 H       1  UNL1        0.0293
     33 H           4.6591    2.7986    1.6388 H       1  UNL1        0.0293
     34 H           4.3502   -0.7715   -0.4928 H       1  UNL1        0.0293
     35 H           4.3659   -0.9840    1.2061 H       1  UNL1        0.0293
     36 H           1.3901    2.3979   -1.0246 H       1  UNL1        0.0296
     37 H           1.1131    0.9894   -2.0613 H       1  UNL1        0.0296
     38 H           6.8229    1.1982    2.1054 H       1  UNL1        0.0266
     39 H           6.6984    2.1260    0.6592 H       1  UNL1        0.0266
     40 H           6.4591    0.2056   -0.5690 H       1  UNL1        0.0266
     41 H           6.6986   -0.7233    0.8618 H       1  UNL1        0.0266
     42 H          -0.7081    0.4828   -0.2325 H       1  UNL1        0.0326
     43 H          -0.0890    1.8682    0.6548 H       1  UNL1        0.0326
     44 H           3.4315    0.4119   -1.9720 H       1  UNL1        0.0560
     45 H           3.2580    2.0824   -2.4997 H       1  UNL1        0.0560
     46 H           0.4171    0.4430    2.5560 H       1  UNL1        0.0814
     47 H          -1.2765    0.3206    2.1315 H       1  UNL1        0.0814
     48 H          -0.0353   -1.0018   -1.7176 H       1  UNL1        0.0636
     49 H           0.0936   -3.4122   -2.0789 H       1  UNL1        0.0619
     50 H           3.1175   -3.6052    0.7823 H       1  UNL1        0.0829
     51 H          -0.8381   -1.3517   -0.2998 H       1  UNL1        0.0873
     52 H          -2.0500   -1.6194    0.9549 H       1  UNL1        0.0873
     53 H           1.7024   -4.7289   -0.8004 H       1  UNL1        0.0633
     54 H           0.2369   -6.3585    1.0057 H       1  UNL1        0.0659
     55 H          -1.5215   -6.5115   -0.8084 H       1  UNL1        0.0694
     56 H           1.7614   -4.3439    3.7763 H       1  UNL1        0.0660
     57 H           1.4910   -5.6574    2.6560 H       1  UNL1        0.0660
     58 H           0.1661   -5.0374    3.6118 H       1  UNL1        0.0660
@<TRIPOS>UNITY_ATOM_ATTR
5 1
charge 1
@<TRIPOS>BOND
     1     1    23   ar
     2     1    26   ar
     3     2     6    1
     4     2    15    1
     5     3    24    1
     6     3    27    1
     7     4    16   ar
     8     4    20   ar
     9     5    17    1
    10     5    21    1
    11     5    28    1
    12     5    29    1
    13     6     8    1
    14     6     9    1
    15     6    10    1
    16     7     8    1
    17     7    11    1
    18     7    14    1
    19     7    16    1
    20     8    30    1
    21     8    31    1
    22     9    12    1
    23     9    32    1
    24     9    33    1
    25    10    13    1
    26    10    34    1
    27    10    35    1
    28    11    15    1
    29    11    36    1
    30    11    37    1
    31    12    13    1
    32    12    38    1
    33    12    39    1
    34    13    40    1
    35    13    41    1
    36    14    17    1
    37    14    42    1
    38    14    43    1
    39    15    44    1
    40    15    45    1
    41    16    18   ar
    42    17    46    1
    43    17    47    1
    44    18    19   ar
    45    18    48    1
    46    19    22   ar
    47    19    49    1
    48    20    22   ar
    49    20    50    1
    50    21    23    1
    51    21    51    1
    52    21    52    1
    53    22    53    1
    54    23    24   ar
    55    24    25   ar
    56    25    26   ar
    57    25    54    1
    58    26    55    1
    59    27    56    1
    60    27    57    1
    61    27    58    1
@<TRIPOS>MOLECULE
66553195
 58 61 0 0 0
SMALL
GASTEIGER

@<TRIPOS>ATOM
      1 S           0.4793   -0.6386    4.8796 S.2     1  UNL1       -0.0926
      2 O           3.9947    1.8338   -0.6210 O.3     1  UNL1       -0.3733
      3 O          -2.2182    2.0635    5.4815 O.3     1  UNL1       -0.4941
      4 N           0.3359   -1.6114   -0.6301 N.ar    1  UNL1       -0.2593
      5 N          -1.6350    0.3940    2.2612 N.4     1  UNL1        0.2308
      6 C           3.9072    1.0510    0.5757 C.3     1  UNL1        0.0704
      7 C           1.4313    0.5057   -0.0051 C.3     1  UNL1        0.0224
      8 C           2.4527    0.9788    1.0713 C.3     1  UNL1       -0.0124
      9 C           4.8008    1.7382    1.6213 C.3     1  UNL1       -0.0237
     10 C           4.6231   -0.2974    0.4268 C.3     1  UNL1       -0.0237
     11 C           1.6850    1.3950   -1.2530 C.3     1  UNL1       -0.0181
     12 C           6.2268    1.3540    1.2306 C.3     1  UNL1       -0.0504
     13 C           6.1087    0.0588    0.4313 C.3     1  UNL1       -0.0504
     14 C          -0.0007    0.8133    0.4991 C.3     1  UNL1       -0.0013
     15 C           3.1485    1.4020   -1.6812 C.3     1  UNL1        0.0492
     16 C           1.4898   -1.0143   -0.2569 C.ar    1  UNL1        0.0478
     17 C          -0.2774    0.1027    1.8165 C.3     1  UNL1       -0.0325
     18 C           2.6922   -1.6832   -0.0944 C.ar    1  UNL1       -0.0398
     19 C           2.7117   -3.0533   -0.3305 C.ar    1  UNL1       -0.0586
     20 C           0.3934   -2.9441   -0.8507 C.ar    1  UNL1        0.0279
     21 C          -1.9180   -0.2623    3.5298 C.3     1  UNL1        0.0021
     22 C           1.5446   -3.7033   -0.7163 C.ar    1  UNL1       -0.0436
     23 C          -0.9897    0.2020    4.6206 C.ar    1  UNL1        0.0756
     24 C          -1.1428    1.2566    5.4937 C.ar    1  UNL1        0.1353
     25 C          -0.0392    1.3759    6.3870 C.ar    1  UNL1       -0.0124
     26 C           0.9152    0.4081    6.1627 C.ar    1  UNL1       -0.0203
     27 C          -2.8860    2.2631    4.2276 C.3     1  UNL1        0.0788
     28 H          -2.2953    0.0614    1.5586 H       1  UNL1        0.2017
     29 H          -1.7274    1.4019    2.3879 H       1  UNL1        0.2017
     30 H           2.1628    1.9541    1.4025 H       1  UNL1        0.0302
     31 H           2.4318    0.2502    1.8546 H       1  UNL1        0.0302
     32 H           4.5711    1.3839    2.6045 H       1  UNL1        0.0293
     33 H           4.6591    2.7986    1.6388 H       1  UNL1        0.0293
     34 H           4.3502   -0.7715   -0.4928 H       1  UNL1        0.0293
     35 H           4.3659   -0.9840    1.2061 H       1  UNL1        0.0293
     36 H           1.3901    2.3979   -1.0246 H       1  UNL1        0.0296
     37 H           1.1131    0.9894   -2.0613 H       1  UNL1        0.0296
     38 H           6.8229    1.1982    2.1054 H       1  UNL1        0.0266
     39 H           6.6984    2.1260    0.6592 H       1  UNL1        0.0266
     40 H           6.4591    0.2056   -0.5690 H       1  UNL1        0.0266
     41 H           6.6986   -0.7233    0.8618 H       1  UNL1        0.0266
     42 H          -0.7081    0.4828   -0.2325 H       1  UNL1        0.0326
     43 H          -0.0890    1.8682    0.6548 H       1  UNL1        0.0326
     44 H           3.4315    0.4119   -1.9720 H       1  UNL1        0.0560
     45 H           3.2580    2.0824   -2.4997 H       1  UNL1        0.0560
     46 H          -0.1674   -0.9529    1.6803 H       1  UNL1        0.0814
     47 H           0.4168    0.4462    2.5548 H       1  UNL1        0.0814
     48 H           3.5465   -1.1804    0.1929 H       1  UNL1        0.0636
     49 H           3.5888   -3.5857   -0.2197 H       1  UNL1        0.0619
     50 H          -0.4734   -3.4255   -1.1367 H       1  UNL1        0.0829
     51 H          -1.8047   -1.3191    3.4056 H       1  UNL1        0.0873
     52 H          -2.9182   -0.0131    3.8167 H       1  UNL1        0.0873
     53 H           1.5362   -4.7193   -0.8968 H       1  UNL1        0.0633
     54 H           0.0363    2.1020    7.1165 H       1  UNL1        0.0659
     55 H           1.7897    0.3239    6.7040 H       1  UNL1        0.0694
     56 H          -3.7170    2.9226    4.3672 H       1  UNL1        0.0660
     57 H          -3.2356    1.3225    3.8560 H       1  UNL1        0.0660
     58 H          -2.2036    2.6930    3.5245 H       1  UNL1        0.0660
@<TRIPOS>UNITY_ATOM_ATTR
5 1
charge 1
@<TRIPOS>BOND
     1     1    23   ar
     2     1    26   ar
     3     2     6    1
     4     2    15    1
     5     3    24    1
     6     3    27    1
     7     4    16   ar
     8     4    20   ar
     9     5    17    1
    10     5    21    1
    11     5    28    1
    12     5    29    1
    13     6     8    1
    14     6     9    1
    15     6    10    1
    16     7     8    1
    17     7    11    1
    18     7    14    1
    19     7    16    1
    20     8    30    1
    21     8    31    1
    22     9    12    1
    23     9    32    1
    24     9    33    1
    25    10    13    1
    26    10    34    1
    27    10    35    1
    28    11    15    1
    29    11    36    1
    30    11    37    1
    31    12    13    1
    32    12    38    1
    33    12    39    1
    34    13    40    1
    35    13    41    1
    36    14    17    1
    37    14    42    1
    38    14    43    1
    39    15    44    1
    40    15    45    1
    41    16    18   ar
    42    17    46    1
    43    17    47    1
    44    18    19   ar
    45    18    48    1
    46    19    22   ar
    47    19    49    1
    48    20    22   ar
    49    20    50    1
    50    21    23    1
    51    21    51    1
    52    21    52    1
    53    22    53    1
    54    23    24   ar
    55    24    25   ar
    56    25    26   ar
    57    25    54    1
    58    26    55    1
    59    27    56    1
    60    27    57    1
    61    27    58    1
@<TRIPOS>MOLECULE
66553195
 58 61 0 0 0
SMALL
GASTEIGER

@<TRIPOS>ATOM
      1 S           0.0136   -0.9424    5.4053 S.2     1  UNL1       -0.0926
      2 O           3.9947    1.8338   -0.6210 O.3     1  UNL1       -0.3733
      3 O          -1.4860    2.5403    4.6555 O.3     1  UNL1       -0.4941
      4 N           0.6793   -1.7857    0.5017 N.ar    1  UNL1       -0.2593
      5 N          -1.6350    0.3940    2.2612 N.4     1  UNL1        0.2308
      6 C           3.9072    1.0510    0.5757 C.3     1  UNL1        0.0704
      7 C           1.4313    0.5057   -0.0051 C.3     1  UNL1        0.0224
      8 C           2.4527    0.9788    1.0713 C.3     1  UNL1       -0.0124
      9 C           4.8008    1.7382    1.6213 C.3     1  UNL1       -0.0237
     10 C           4.6231   -0.2974    0.4268 C.3     1  UNL1       -0.0237
     11 C           1.6850    1.3950   -1.2530 C.3     1  UNL1       -0.0181
     12 C           6.2268    1.3540    1.2306 C.3     1  UNL1       -0.0504
     13 C           6.1087    0.0588    0.4313 C.3     1  UNL1       -0.0504
     14 C          -0.0007    0.8133    0.4991 C.3     1  UNL1       -0.0013
     15 C           3.1485    1.4020   -1.6812 C.3     1  UNL1        0.0492
     16 C           1.4898   -1.0143   -0.2569 C.ar    1  UNL1        0.0478
     17 C          -0.2774    0.1027    1.8165 C.3     1  UNL1       -0.0325
     18 C           2.3481   -1.5091   -1.2255 C.ar    1  UNL1       -0.0398
     19 C           2.3761   -2.8842   -1.4290 C.ar    1  UNL1       -0.0586
     20 C           0.7340   -3.1176    0.2757 C.ar    1  UNL1        0.0279
     21 C          -1.9180   -0.2623    3.5298 C.3     1  UNL1        0.0021
     22 C           1.5567   -3.7107   -0.6683 C.ar    1  UNL1       -0.0436
     23 C          -0.9897    0.2020    4.6206 C.ar    1  UNL1        0.0756
     24 C          -0.8083    1.4745    5.1163 C.ar    1  UNL1        0.1353
     25 C           0.1673    1.5102    6.1540 C.ar    1  UNL1       -0.0124
     26 C           0.6945    0.2639    6.4119 C.ar    1  UNL1       -0.0203
     27 C          -1.1961    3.8174    5.2413 C.3     1  UNL1        0.0788
     28 H          -2.2953    0.0614    1.5586 H       1  UNL1        0.2017
     29 H          -1.7274    1.4019    2.3879 H       1  UNL1        0.2017
     30 H           2.1628    1.9541    1.4025 H       1  UNL1        0.0302
     31 H           2.4318    0.2502    1.8546 H       1  UNL1        0.0302
     32 H           4.5711    1.3839    2.6045 H       1  UNL1        0.0293
     33 H           4.6591    2.7986    1.6388 H       1  UNL1        0.0293
     34 H           4.3502   -0.7715   -0.4928 H       1  UNL1        0.0293
     35 H           4.3659   -0.9840    1.2061 H       1  UNL1        0.0293
     36 H           1.3901    2.3979   -1.0246 H       1  UNL1        0.0296
     37 H           1.1131    0.9894   -2.0613 H       1  UNL1        0.0296
     38 H           6.8229    1.1982    2.1054 H       1  UNL1        0.0266
     39 H           6.6984    2.1260    0.6592 H       1  UNL1        0.0266
     40 H           6.4591    0.2056   -0.5690 H       1  UNL1        0.0266
     41 H           6.6986   -0.7233    0.8618 H       1  UNL1        0.0266
     42 H          -0.7081    0.4828   -0.2325 H       1  UNL1        0.0326
     43 H          -0.0890    1.8682    0.6548 H       1  UNL1        0.0326
     44 H           3.4315    0.4119   -1.9720 H       1  UNL1        0.0560
     45 H           3.2580    2.0824   -2.4997 H       1  UNL1        0.0560
     46 H          -0.1674   -0.9529    1.6803 H       1  UNL1        0.0814
     47 H           0.4168    0.4462    2.5548 H       1  UNL1        0.0814
     48 H           2.9477   -0.8769   -1.7786 H       1  UNL1        0.0636
     49 H           3.0026   -3.2898   -2.1417 H       1  UNL1        0.0619
     50 H           0.1256   -3.7300    0.8411 H       1  UNL1        0.0829
     51 H          -1.8047   -1.3191    3.4056 H       1  UNL1        0.0873
     52 H          -2.9182   -0.0131    3.8167 H       1  UNL1        0.0873
     53 H           1.5611   -4.7340   -0.8026 H       1  UNL1        0.0633
     54 H           0.4464    2.3689    6.6538 H       1  UNL1        0.0659
     55 H           1.4148    0.0790    7.1273 H       1  UNL1        0.0694
     56 H          -1.8048    4.5674    4.7810 H       1  UNL1        0.0660
     57 H          -0.1635    4.0533    5.0894 H       1  UNL1        0.0660
     58 H          -1.4037    3.7840    6.2904 H       1  UNL1        0.0660
@<TRIPOS>UNITY_ATOM_ATTR
5 1
charge 1
@<TRIPOS>BOND
     1     1    23   ar
     2     1    26   ar
     3     2     6    1
     4     2    15    1
     5     3    24    1
     6     3    27    1
     7     4    16   ar
     8     4    20   ar
     9     5    17    1
    10     5    21    1
    11     5    28    1
    12     5    29    1
    13     6     8    1
    14     6     9    1
    15     6    10    1
    16     7     8    1
    17     7    11    1
    18     7    14    1
    19     7    16    1
    20     8    30    1
    21     8    31    1
    22     9    12    1
    23     9    32    1
    24     9    33    1
    25    10    13    1
    26    10    34    1
    27    10    35    1
    28    11    15    1
    29    11    36    1
    30    11    37    1
    31    12    13    1
    32    12    38    1
    33    12    39    1
    34    13    40    1
    35    13    41    1
    36    14    17    1
    37    14    42    1
    38    14    43    1
    39    15    44    1
    40    15    45    1
    41    16    18   ar
    42    17    46    1
    43    17    47    1
    44    18    19   ar
    45    18    48    1
    46    19    22   ar
    47    19    49    1
    48    20    22   ar
    49    20    50    1
    50    21    23    1
    51    21    51    1
    52    21    52    1
    53    22    53    1
    54    23    24   ar
    55    24    25   ar
    56    25    26   ar
    57    25    54    1
    58    26    55    1
    59    27    56    1
    60    27    57    1
    61    27    58    1
@<TRIPOS>MOLECULE
66553195
 58 61 0 0 0
SMALL
GASTEIGER

@<TRIPOS>ATOM
      1 S          -0.6747   -3.9190   -1.1958 S.2     1  UNL1       -0.0926
      2 O           3.9947    1.8338   -0.6210 O.3     1  UNL1       -0.3733
      3 O          -1.4960   -4.0434    2.5792 O.3     1  UNL1       -0.4941
      4 N           1.2206   -1.8141    0.7992 N.ar    1  UNL1       -0.2593
      5 N          -0.9367   -1.0864   -0.7122 N.4     1  UNL1        0.2308
      6 C           3.9072    1.0510    0.5757 C.3     1  UNL1        0.0704
      7 C           1.4313    0.5057   -0.0051 C.3     1  UNL1        0.0224
      8 C           2.4527    0.9788    1.0713 C.3     1  UNL1       -0.0124
      9 C           4.8008    1.7382    1.6213 C.3     1  UNL1       -0.0237
     10 C           4.6231   -0.2974    0.4268 C.3     1  UNL1       -0.0237
     11 C           1.6850    1.3950   -1.2530 C.3     1  UNL1       -0.0181
     12 C           6.2268    1.3540    1.2306 C.3     1  UNL1       -0.0504
     13 C           6.1087    0.0588    0.4313 C.3     1  UNL1       -0.0504
     14 C          -0.0007    0.8133    0.4991 C.3     1  UNL1       -0.0013
     15 C           3.1485    1.4020   -1.6812 C.3     1  UNL1        0.0492
     16 C           1.4898   -1.0143   -0.2569 C.ar    1  UNL1        0.0478
     17 C          -1.0428    0.3538   -0.5107 C.3     1  UNL1       -0.0325
     18 C           1.8067   -1.4807   -1.5225 C.ar    1  UNL1       -0.0398
     19 C           1.8498   -2.8568   -1.7169 C.ar    1  UNL1       -0.0586
     20 C           1.2723   -3.1460    0.5722 C.ar    1  UNL1        0.0279
     21 C          -1.1708   -1.8036    0.5332 C.3     1  UNL1        0.0021
     22 C           1.5787   -3.7121   -0.6547 C.ar    1  UNL1       -0.0436
     23 C          -1.0494   -3.2936    0.3535 C.ar    1  UNL1        0.0756
     24 C          -1.2002   -4.2914    1.2913 C.ar    1  UNL1        0.1353
     25 C          -1.0054   -5.5865    0.7302 C.ar    1  UNL1       -0.0124
     26 C          -0.7132   -5.5292   -0.6148 C.ar    1  UNL1       -0.0203
     27 C          -2.2544   -5.0321    3.2900 C.3     1  UNL1        0.0788
     28 H          -0.0016   -1.3078   -1.0543 H       1  UNL1        0.2017
     29 H          -1.6416   -1.3735   -1.3911 H       1  UNL1        0.2017
     30 H           2.1628    1.9541    1.4025 H       1  UNL1        0.0302
     31 H           2.4318    0.2502    1.8546 H       1  UNL1        0.0302
     32 H           4.5711    1.3839    2.6045 H       1  UNL1        0.0293
     33 H           4.6591    2.7986    1.6388 H       1  UNL1        0.0293
     34 H           4.3502   -0.7715   -0.4928 H       1  UNL1        0.0293
     35 H           4.3659   -0.9840    1.2061 H       1  UNL1        0.0293
     36 H           1.3901    2.3979   -1.0246 H       1  UNL1        0.0296
     37 H           1.1131    0.9894   -2.0613 H       1  UNL1        0.0296
     38 H           6.8229    1.1982    2.1054 H       1  UNL1        0.0266
     39 H           6.6984    2.1260    0.6592 H       1  UNL1        0.0266
     40 H           6.4591    0.2056   -0.5690 H       1  UNL1        0.0266
     41 H           6.6986   -0.7233    0.8618 H       1  UNL1        0.0266
     42 H          -0.1000    1.8680    0.6496 H       1  UNL1        0.0326
     43 H          -0.1599    0.2879    1.4175 H       1  UNL1        0.0326
     44 H           3.4315    0.4119   -1.9720 H       1  UNL1        0.0560
     45 H           3.2580    2.0824   -2.4997 H       1  UNL1        0.0560
     46 H          -2.0202    0.5898   -0.1445 H       1  UNL1        0.0814
     47 H          -0.8755    0.8533   -1.4421 H       1  UNL1        0.0814
     48 H           2.0045   -0.8274   -2.2965 H       1  UNL1        0.0636
     49 H           2.0822   -3.2418   -2.6457 H       1  UNL1        0.0619
     50 H           1.0711   -3.7798    1.3613 H       1  UNL1        0.0829
     51 H          -2.1560   -1.5763    0.8835 H       1  UNL1        0.0873
     52 H          -0.4295   -1.4929    1.2396 H       1  UNL1        0.0873
     53 H           1.6048   -4.7366   -0.7764 H       1  UNL1        0.0633
     54 H          -1.0751   -6.4644    1.2683 H       1  UNL1        0.0659
     55 H          -0.5381   -6.3590   -1.2029 H       1  UNL1        0.0694
     56 H          -2.4144   -4.7038    4.2958 H       1  UNL1        0.0660
     57 H          -1.7161   -5.9569    3.2979 H       1  UNL1        0.0660
     58 H          -3.1985   -5.1731    2.8065 H       1  UNL1        0.0660
@<TRIPOS>UNITY_ATOM_ATTR
5 1
charge 1
@<TRIPOS>BOND
     1     1    23   ar
     2     1    26   ar
     3     2     6    1
     4     2    15    1
     5     3    24    1
     6     3    27    1
     7     4    16   ar
     8     4    20   ar
     9     5    17    1
    10     5    21    1
    11     5    28    1
    12     5    29    1
    13     6     8    1
    14     6     9    1
    15     6    10    1
    16     7     8    1
    17     7    11    1
    18     7    14    1
    19     7    16    1
    20     8    30    1
    21     8    31    1
    22     9    12    1
    23     9    32    1
    24     9    33    1
    25    10    13    1
    26    10    34    1
    27    10    35    1
    28    11    15    1
    29    11    36    1
    30    11    37    1
    31    12    13    1
    32    12    38    1
    33    12    39    1
    34    13    40    1
    35    13    41    1
    36    14    17    1
    37    14    42    1
    38    14    43    1
    39    15    44    1
    40    15    45    1
    41    16    18   ar
    42    17    46    1
    43    17    47    1
    44    18    19   ar
    45    18    48    1
    46    19    22   ar
    47    19    49    1
    48    20    22   ar
    49    20    50    1
    50    21    23    1
    51    21    51    1
    52    21    52    1
    53    22    53    1
    54    23    24   ar
    55    24    25   ar
    56    25    26   ar
    57    25    54    1
    58    26    55    1
    59    27    56    1
    60    27    57    1
    61    27    58    1
@<TRIPOS>MOLECULE
66553195
 58 61 0 0 0
SMALL
GASTEIGER

@<TRIPOS>ATOM
      1 S          -1.4852   -3.6382   -3.4646 S.2     1  UNL1       -0.0926
      2 O           3.9947    1.8338   -0.6210 O.3     1  UNL1       -0.3733
      3 O          -2.2909   -3.8213    0.3113 O.3     1  UNL1       -0.4941
      4 N           0.6793   -1.7857    0.5017 N.ar    1  UNL1       -0.2593
      5 N          -0.9367   -1.0864   -0.7122 N.4     1  UNL1        0.2308
      6 C           3.9072    1.0510    0.5757 C.3     1  UNL1        0.0704
      7 C           1.4313    0.5057   -0.0051 C.3     1  UNL1        0.0224
      8 C           2.4527    0.9788    1.0713 C.3     1  UNL1       -0.0124
      9 C           4.8008    1.7382    1.6213 C.3     1  UNL1       -0.0237
     10 C           4.6231   -0.2974    0.4268 C.3     1  UNL1       -0.0237
     11 C           1.6850    1.3950   -1.2530 C.3     1  UNL1       -0.0181
     12 C           6.2268    1.3540    1.2306 C.3     1  UNL1       -0.0504
     13 C           6.1087    0.0588    0.4313 C.3     1  UNL1       -0.0504
     14 C          -0.0007    0.8133    0.4991 C.3     1  UNL1       -0.0013
     15 C           3.1485    1.4020   -1.6812 C.3     1  UNL1        0.0492
     16 C           1.4898   -1.0143   -0.2569 C.ar    1  UNL1        0.0478
     17 C          -1.0428    0.3538   -0.5107 C.3     1  UNL1       -0.0325
     18 C           2.3481   -1.5091   -1.2255 C.ar    1  UNL1       -0.0398
     19 C           2.3761   -2.8842   -1.4290 C.ar    1  UNL1       -0.0586
     20 C           0.7340   -3.1176    0.2757 C.ar    1  UNL1        0.0279
     21 C          -1.9140   -1.5477   -1.6880 C.3     1  UNL1        0.0021
     22 C           1.5567   -3.7107   -0.6683 C.ar    1  UNL1       -0.0436
     23 C          -1.8347   -3.0362   -1.9002 C.ar    1  UNL1        0.0756
     24 C          -2.0084   -4.0496   -0.9832 C.ar    1  UNL1        0.1353
     25 C          -1.8523   -5.3371   -1.5730 C.ar    1  UNL1       -0.0124
     26 C          -1.5653   -5.2589   -2.9180 C.ar    1  UNL1       -0.0203
     27 C          -3.0728   -4.8039    1.0050 C.3     1  UNL1        0.0788
     28 H          -1.1015   -1.5609    0.1756 H       1  UNL1        0.2017
     29 H          -0.0021   -1.2987   -1.0614 H       1  UNL1        0.2017
     30 H           2.1628    1.9541    1.4025 H       1  UNL1        0.0302
     31 H           2.4318    0.2502    1.8546 H       1  UNL1        0.0302
     32 H           4.5711    1.3839    2.6045 H       1  UNL1        0.0293
     33 H           4.6591    2.7986    1.6388 H       1  UNL1        0.0293
     34 H           4.3502   -0.7715   -0.4928 H       1  UNL1        0.0293
     35 H           4.3659   -0.9840    1.2061 H       1  UNL1        0.0293
     36 H           1.3901    2.3979   -1.0246 H       1  UNL1        0.0296
     37 H           1.1131    0.9894   -2.0613 H       1  UNL1        0.0296
     38 H           6.8229    1.1982    2.1054 H       1  UNL1        0.0266
     39 H           6.6984    2.1260    0.6592 H       1  UNL1        0.0266
     40 H           6.4591    0.2056   -0.5690 H       1  UNL1        0.0266
     41 H           6.6986   -0.7233    0.8618 H       1  UNL1        0.0266
     42 H          -0.1000    1.8680    0.6496 H       1  UNL1        0.0326
     43 H          -0.1599    0.2879    1.4175 H       1  UNL1        0.0326
     44 H           3.4315    0.4119   -1.9720 H       1  UNL1        0.0560
     45 H           3.2580    2.0824   -2.4997 H       1  UNL1        0.0560
     46 H          -2.0202    0.5898   -0.1445 H       1  UNL1        0.0814
     47 H          -0.8755    0.8533   -1.4421 H       1  UNL1        0.0814
     48 H           2.9477   -0.8769   -1.7786 H       1  UNL1        0.0636
     49 H           3.0026   -3.2898   -2.1417 H       1  UNL1        0.0619
     50 H           0.1256   -3.7300    0.8411 H       1  UNL1        0.0829
     51 H          -1.7315   -1.0550   -2.6201 H       1  UNL1        0.0873
     52 H          -2.8899   -1.3171   -1.3148 H       1  UNL1        0.0873
     53 H           1.5611   -4.7340   -0.8026 H       1  UNL1        0.0633
     54 H          -1.9436   -6.2242   -1.0534 H       1  UNL1        0.0659
     55 H          -1.4161   -6.0803   -3.5247 H       1  UNL1        0.0694
     56 H          -3.2186   -4.4931    2.0184 H       1  UNL1        0.0660
     57 H          -2.5602   -5.7431    0.9901 H       1  UNL1        0.0660
     58 H          -4.0228   -4.9084    0.5238 H       1  UNL1        0.0660
@<TRIPOS>UNITY_ATOM_ATTR
5 1
charge 1
@<TRIPOS>BOND
     1     1    23   ar
     2     1    26   ar
     3     2     6    1
     4     2    15    1
     5     3    24    1
     6     3    27    1
     7     4    16   ar
     8     4    20   ar
     9     5    17    1
    10     5    21    1
    11     5    28    1
    12     5    29    1
    13     6     8    1
    14     6     9    1
    15     6    10    1
    16     7     8    1
    17     7    11    1
    18     7    14    1
    19     7    16    1
    20     8    30    1
    21     8    31    1
    22     9    12    1
    23     9    32    1
    24     9    33    1
    25    10    13    1
    26    10    34    1
    27    10    35    1
    28    11    15    1
    29    11    36    1
    30    11    37    1
    31    12    13    1
    32    12    38    1
    33    12    39    1
    34    13    40    1
    35    13    41    1
    36    14    17    1
    37    14    42    1
    38    14    43    1
    39    15    44    1
    40    15    45    1
    41    16    18   ar
    42    17    46    1
    43    17    47    1
    44    18    19   ar
    45    18    48    1
    46    19    22   ar
    47    19    49    1
    48    20    22   ar
    49    20    50    1
    50    21    23    1
    51    21    51    1
    52    21    52    1
    53    22    53    1
    54    23    24   ar
    55    24    25   ar
    56    25    26   ar
    57    25    54    1
    58    26    55    1
    59    27    56    1
    60    27    57    1
    61    27    58    1
@<TRIPOS>MOLECULE
66553195
 58 61 0 0 0
SMALL
GASTEIGER

@<TRIPOS>ATOM
      1 S          -3.8471   -0.6586    5.4874 S.2     1  UNL1       -0.0926
      2 O           3.9947    1.8338   -0.6210 O.3     1  UNL1       -0.3733
      3 O          -4.1281    1.3794    2.2151 O.3     1  UNL1       -0.4941
      4 N           1.8670   -1.7871    0.7861 N.ar    1  UNL1       -0.2593
      5 N          -1.6350    0.3940    2.2612 N.4     1  UNL1        0.2308
      6 C           3.9072    1.0510    0.5757 C.3     1  UNL1        0.0704
      7 C           1.4313    0.5057   -0.0051 C.3     1  UNL1        0.0224
      8 C           2.4527    0.9788    1.0713 C.3     1  UNL1       -0.0124
      9 C           4.8008    1.7382    1.6213 C.3     1  UNL1       -0.0237
     10 C           4.6231   -0.2974    0.4268 C.3     1  UNL1       -0.0237
     11 C           1.6850    1.3950   -1.2530 C.3     1  UNL1       -0.0181
     12 C           6.2268    1.3540    1.2306 C.3     1  UNL1       -0.0504
     13 C           6.1087    0.0588    0.4313 C.3     1  UNL1       -0.0504
     14 C          -0.0007    0.8133    0.4991 C.3     1  UNL1       -0.0013
     15 C           3.1485    1.4020   -1.6812 C.3     1  UNL1        0.0492
     16 C           1.4898   -1.0143   -0.2569 C.ar    1  UNL1        0.0478
     17 C          -0.2774    0.1027    1.8165 C.3     1  UNL1       -0.0325
     18 C           1.1606   -1.5078   -1.5090 C.ar    1  UNL1       -0.0398
     19 C           1.2221   -2.8832   -1.7031 C.ar    1  UNL1       -0.0586
     20 C           1.9154   -3.1192    0.5598 C.ar    1  UNL1        0.0279
     21 C          -1.9180   -0.2623    3.5298 C.3     1  UNL1        0.0021
     22 C           1.6058   -3.7112   -0.6540 C.ar    1  UNL1       -0.0436
     23 C          -3.3217    0.0104    4.0014 C.ar    1  UNL1        0.0756
     24 C          -4.3075    0.7557    3.3926 C.ar    1  UNL1        0.1353
     25 C          -5.5099    0.7777    4.1565 C.ar    1  UNL1       -0.0124
     26 C          -5.3975    0.0486    5.3199 C.ar    1  UNL1       -0.0203
     27 C          -5.2258    2.1400    1.6910 C.3     1  UNL1        0.0788
     28 H          -2.2953    0.0614    1.5586 H       1  UNL1        0.2017
     29 H          -1.7274    1.4019    2.3879 H       1  UNL1        0.2017
     30 H           2.1628    1.9541    1.4025 H       1  UNL1        0.0302
     31 H           2.4318    0.2502    1.8546 H       1  UNL1        0.0302
     32 H           4.5711    1.3839    2.6045 H       1  UNL1        0.0293
     33 H           4.6591    2.7986    1.6388 H       1  UNL1        0.0293
     34 H           4.3502   -0.7715   -0.4928 H       1  UNL1        0.0293
     35 H           4.3659   -0.9840    1.2061 H       1  UNL1        0.0293
     36 H           1.3901    2.3979   -1.0246 H       1  UNL1        0.0296
     37 H           1.1131    0.9894   -2.0613 H       1  UNL1        0.0296
     38 H           6.8229    1.1982    2.1054 H       1  UNL1        0.0266
     39 H           6.6984    2.1260    0.6592 H       1  UNL1        0.0266
     40 H           6.4591    0.2056   -0.5690 H       1  UNL1        0.0266
     41 H           6.6986   -0.7233    0.8618 H       1  UNL1        0.0266
     42 H          -0.7081    0.4828   -0.2325 H       1  UNL1        0.0326
     43 H          -0.0890    1.8682    0.6548 H       1  UNL1        0.0326
     44 H           3.4315    0.4119   -1.9720 H       1  UNL1        0.0560
     45 H           3.2580    2.0824   -2.4997 H       1  UNL1        0.0560
     46 H          -0.1674   -0.9529    1.6803 H       1  UNL1        0.0814
     47 H           0.4168    0.4462    2.5548 H       1  UNL1        0.0814
     48 H           0.8785   -0.8745   -2.2735 H       1  UNL1        0.0636
     49 H           0.9841   -3.2879   -2.6221 H       1  UNL1        0.0619
     50 H           2.2005   -3.7327    1.3391 H       1  UNL1        0.0829
     51 H          -1.2296    0.0966    4.2663 H       1  UNL1        0.0873
     52 H          -1.8146   -1.3178    3.3878 H       1  UNL1        0.0873
     53 H           1.6582   -4.7347   -0.7756 H       1  UNL1        0.0633
     54 H          -6.3649    1.2809    3.8717 H       1  UNL1        0.0659
     55 H          -6.1579   -0.0587    6.0092 H       1  UNL1        0.0694
     56 H          -4.9427    2.5772    0.7564 H       1  UNL1        0.0660
     57 H          -5.4859    2.9139    2.3827 H       1  UNL1        0.0660
     58 H          -6.0675    1.4961    1.5431 H       1  UNL1        0.0660
@<TRIPOS>UNITY_ATOM_ATTR
5 1
charge 1
@<TRIPOS>BOND
     1     1    23   ar
     2     1    26   ar
     3     2     6    1
     4     2    15    1
     5     3    24    1
     6     3    27    1
     7     4    16   ar
     8     4    20   ar
     9     5    17    1
    10     5    21    1
    11     5    28    1
    12     5    29    1
    13     6     8    1
    14     6     9    1
    15     6    10    1
    16     7     8    1
    17     7    11    1
    18     7    14    1
    19     7    16    1
    20     8    30    1
    21     8    31    1
    22     9    12    1
    23     9    32    1
    24     9    33    1
    25    10    13    1
    26    10    34    1
    27    10    35    1
    28    11    15    1
    29    11    36    1
    30    11    37    1
    31    12    13    1
    32    12    38    1
    33    12    39    1
    34    13    40    1
    35    13    41    1
    36    14    17    1
    37    14    42    1
    38    14    43    1
    39    15    44    1
    40    15    45    1
    41    16    18   ar
    42    17    46    1
    43    17    47    1
    44    18    19   ar
    45    18    48    1
    46    19    22   ar
    47    19    49    1
    48    20    22   ar
    49    20    50    1
    50    21    23    1
    51    21    51    1
    52    21    52    1
    53    22    53    1
    54    23    24   ar
    55    24    25   ar
    56    25    26   ar
    57    25    54    1
    58    26    55    1
    59    27    56    1
    60    27    57    1
    61    27    58    1
@<TRIPOS>MOLECULE
66553195
 58 61 0 0 0
SMALL
GASTEIGER

@<TRIPOS>ATOM
      1 S          -0.6536   -0.7007    3.0660 S.2     1  UNL1       -0.0926
      2 O           3.9947    1.8338   -0.6210 O.3     1  UNL1       -0.3733
      3 O          -2.1140    2.8093    2.3678 O.3     1  UNL1       -0.4941
      4 N           2.6736   -1.5136   -0.6773 N.ar    1  UNL1       -0.2593
      5 N          -2.3798    0.6689   -0.0216 N.4     1  UNL1        0.2308
      6 C           3.9072    1.0510    0.5757 C.3     1  UNL1        0.0704
      7 C           1.4313    0.5057   -0.0051 C.3     1  UNL1        0.0224
      8 C           2.4527    0.9788    1.0713 C.3     1  UNL1       -0.0124
      9 C           4.8008    1.7382    1.6213 C.3     1  UNL1       -0.0237
     10 C           4.6231   -0.2974    0.4268 C.3     1  UNL1       -0.0237
     11 C           1.6850    1.3950   -1.2530 C.3     1  UNL1       -0.0181
     12 C           6.2268    1.3540    1.2306 C.3     1  UNL1       -0.0504
     13 C           6.1087    0.0588    0.4313 C.3     1  UNL1       -0.0504
     14 C          -0.0007    0.8133    0.4991 C.3     1  UNL1       -0.0013
     15 C           3.1485    1.4020   -1.6812 C.3     1  UNL1        0.0492
     16 C           1.4898   -1.0143   -0.2569 C.ar    1  UNL1        0.0478
     17 C          -1.0428    0.3538   -0.5107 C.3     1  UNL1       -0.0325
     18 C           0.3554   -1.7812   -0.0456 C.ar    1  UNL1       -0.0398
     19 C           0.4416   -3.1489   -0.2805 C.ar    1  UNL1       -0.0586
     20 C           2.7193   -2.8472   -0.8953 C.ar    1  UNL1        0.0279
     21 C          -2.6329    0.0163    1.2551 C.3     1  UNL1        0.0021
     22 C           1.6425   -3.6999   -0.7135 C.ar    1  UNL1       -0.0436
     23 C          -1.6612    0.4625    2.3153 C.ar    1  UNL1        0.0756
     24 C          -1.4408    1.7310    2.8056 C.ar    1  UNL1        0.1353
     25 C          -0.4313    1.7478    3.8108 C.ar    1  UNL1       -0.0124
     26 C           0.0815    0.4919    4.0505 C.ar    1  UNL1       -0.0203
     27 C          -2.3295    3.8813    3.2964 C.3     1  UNL1        0.0788
     28 H          -3.0686    0.3491   -0.7026 H       1  UNL1        0.2017
     29 H          -2.4497    1.6782    0.1086 H       1  UNL1        0.2017
     30 H           2.1628    1.9541    1.4025 H       1  UNL1        0.0302
     31 H           2.4318    0.2502    1.8546 H       1  UNL1        0.0302
     32 H           4.5711    1.3839    2.6045 H       1  UNL1        0.0293
     33 H           4.6591    2.7986    1.6388 H       1  UNL1        0.0293
     34 H           4.3502   -0.7715   -0.4928 H       1  UNL1        0.0293
     35 H           4.3659   -0.9840    1.2061 H       1  UNL1        0.0293
     36 H           1.3901    2.3979   -1.0246 H       1  UNL1        0.0296
     37 H           1.1131    0.9894   -2.0613 H       1  UNL1        0.0296
     38 H           6.8229    1.1982    2.1054 H       1  UNL1        0.0266
     39 H           6.6984    2.1260    0.6592 H       1  UNL1        0.0266
     40 H           6.4591    0.2056   -0.5690 H       1  UNL1        0.0266
     41 H           6.6986   -0.7233    0.8618 H       1  UNL1        0.0266
     42 H          -0.1000    1.8680    0.6496 H       1  UNL1        0.0326
     43 H          -0.1599    0.2879    1.4175 H       1  UNL1        0.0326
     44 H           3.4315    0.4119   -1.9720 H       1  UNL1        0.0560
     45 H           3.2580    2.0824   -2.4997 H       1  UNL1        0.0560
     46 H          -0.8788    0.8537   -1.4425 H       1  UNL1        0.0814
     47 H          -0.9581   -0.7040   -0.6482 H       1  UNL1        0.0814
     48 H          -0.5258   -1.3509    0.2761 H       1  UNL1        0.0636
     49 H          -0.3824   -3.7527   -0.1341 H       1  UNL1        0.0619
     50 H           3.6111   -3.2550   -1.2169 H       1  UNL1        0.0829
     51 H          -2.5428   -1.0422    1.1266 H       1  UNL1        0.0873
     52 H          -3.6186    0.2831    1.5747 H       1  UNL1        0.0873
     53 H           1.7291   -4.7124   -0.8938 H       1  UNL1        0.0633
     54 H          -0.1207    2.6008    4.3017 H       1  UNL1        0.0659
     55 H           0.8214    0.2932    4.7419 H       1  UNL1        0.0694
     56 H          -2.8739    4.6665    2.8146 H       1  UNL1        0.0660
     57 H          -1.3858    4.2564    3.6335 H       1  UNL1        0.0660
     58 H          -2.8897    3.5207    4.1337 H       1  UNL1        0.0660
@<TRIPOS>UNITY_ATOM_ATTR
5 1
charge 1
@<TRIPOS>BOND
     1     1    23   ar
     2     1    26   ar
     3     2     6    1
     4     2    15    1
     5     3    24    1
     6     3    27    1
     7     4    16   ar
     8     4    20   ar
     9     5    17    1
    10     5    21    1
    11     5    28    1
    12     5    29    1
    13     6     8    1
    14     6     9    1
    15     6    10    1
    16     7     8    1
    17     7    11    1
    18     7    14    1
    19     7    16    1
    20     8    30    1
    21     8    31    1
    22     9    12    1
    23     9    32    1
    24     9    33    1
    25    10    13    1
    26    10    34    1
    27    10    35    1
    28    11    15    1
    29    11    36    1
    30    11    37    1
    31    12    13    1
    32    12    38    1
    33    12    39    1
    34    13    40    1
    35    13    41    1
    36    14    17    1
    37    14    42    1
    38    14    43    1
    39    15    44    1
    40    15    45    1
    41    16    18   ar
    42    17    46    1
    43    17    47    1
    44    18    19   ar
    45    18    48    1
    46    19    22   ar
    47    19    49    1
    48    20    22   ar
    49    20    50    1
    50    21    23    1
    51    21    51    1
    52    21    52    1
    53    22    53    1
    54    23    24   ar
    55    24    25   ar
    56    25    26   ar
    57    25    54    1
    58    26    55    1
    59    27    56    1
    60    27    57    1
    61    27    58    1
@<TRIPOS>MOLECULE
66553195
 58 61 0 0 0
SMALL
GASTEIGER

@<TRIPOS>ATOM
      1 S          -6.1273    0.0955   -1.4488 S.2     1  UNL1       -0.0926
      2 O           3.9947    1.8338   -0.6210 O.3     1  UNL1       -0.3733
      3 O          -4.2940    1.6563    1.5751 O.3     1  UNL1       -0.4941
      4 N           0.6441   -1.5069   -1.1894 N.ar    1  UNL1       -0.2593
      5 N          -2.3798    0.6689   -0.0216 N.4     1  UNL1        0.2308
      6 C           3.9072    1.0510    0.5757 C.3     1  UNL1        0.0704
      7 C           1.4313    0.5057   -0.0051 C.3     1  UNL1        0.0224
      8 C           2.4527    0.9788    1.0713 C.3     1  UNL1       -0.0124
      9 C           4.8008    1.7382    1.6213 C.3     1  UNL1       -0.0237
     10 C           4.6231   -0.2974    0.4268 C.3     1  UNL1       -0.0237
     11 C           1.6850    1.3950   -1.2530 C.3     1  UNL1       -0.0181
     12 C           6.2268    1.3540    1.2306 C.3     1  UNL1       -0.0504
     13 C           6.1087    0.0588    0.4313 C.3     1  UNL1       -0.0504
     14 C          -0.0007    0.8133    0.4991 C.3     1  UNL1       -0.0013
     15 C           3.1485    1.4020   -1.6812 C.3     1  UNL1        0.0492
     16 C           1.4898   -1.0143   -0.2569 C.ar    1  UNL1        0.0478
     17 C          -1.0428    0.3538   -0.5107 C.3     1  UNL1       -0.0325
     18 C           2.3845   -1.7877    0.4649 C.ar    1  UNL1       -0.0398
     19 C           2.4134   -3.1548    0.2132 C.ar    1  UNL1       -0.0586
     20 C           0.7007   -2.8401   -1.4068 C.ar    1  UNL1        0.0279
     21 C          -3.3961    0.2233   -0.9644 C.3     1  UNL1        0.0021
     22 C           1.5587   -3.6989   -0.7390 C.ar    1  UNL1       -0.0436
     23 C          -4.7858    0.5535   -0.4883 C.ar    1  UNL1        0.0756
     24 C          -5.1723    1.2026    0.6638 C.ar    1  UNL1        0.1353
     25 C          -6.5886    1.3255    0.7589 C.ar    1  UNL1       -0.0124
     26 C          -7.2305    0.7656   -0.3237 C.ar    1  UNL1       -0.0203
     27 C          -4.6606    2.8190    2.3312 C.3     1  UNL1        0.0788
     28 H          -2.4602    1.6780    0.1040 H       1  UNL1        0.2017
     29 H          -2.5244    0.1869    0.8656 H       1  UNL1        0.2017
     30 H           2.1628    1.9541    1.4025 H       1  UNL1        0.0302
     31 H           2.4318    0.2502    1.8546 H       1  UNL1        0.0302
     32 H           4.5711    1.3839    2.6045 H       1  UNL1        0.0293
     33 H           4.6591    2.7986    1.6388 H       1  UNL1        0.0293
     34 H           4.3502   -0.7715   -0.4928 H       1  UNL1        0.0293
     35 H           4.3659   -0.9840    1.2061 H       1  UNL1        0.0293
     36 H           1.3901    2.3979   -1.0246 H       1  UNL1        0.0296
     37 H           1.1131    0.9894   -2.0613 H       1  UNL1        0.0296
     38 H           6.8229    1.1982    2.1054 H       1  UNL1        0.0266
     39 H           6.6984    2.1260    0.6592 H       1  UNL1        0.0266
     40 H           6.4591    0.2056   -0.5690 H       1  UNL1        0.0266
     41 H           6.6986   -0.7233    0.8618 H       1  UNL1        0.0266
     42 H          -0.1000    1.8680    0.6496 H       1  UNL1        0.0326
     43 H          -0.1599    0.2879    1.4175 H       1  UNL1        0.0326
     44 H           3.4315    0.4119   -1.9720 H       1  UNL1        0.0560
     45 H           3.2580    2.0824   -2.4997 H       1  UNL1        0.0560
     46 H          -0.8788    0.8537   -1.4425 H       1  UNL1        0.0814
     47 H          -0.9581   -0.7040   -0.6482 H       1  UNL1        0.0814
     48 H           3.0098   -1.3625    1.1673 H       1  UNL1        0.0636
     49 H           3.0665   -3.7633    0.7311 H       1  UNL1        0.0619
     50 H           0.0657   -3.2429   -2.1136 H       1  UNL1        0.0829
     51 H          -3.3145   -0.8367   -1.0857 H       1  UNL1        0.0873
     52 H          -3.2336    0.7310   -1.8922 H       1  UNL1        0.0873
     53 H           1.5633   -4.7108   -0.9420 H       1  UNL1        0.0633
     54 H          -7.0762    1.7805    1.5465 H       1  UNL1        0.0659
     55 H          -8.2555    0.7516   -0.4427 H       1  UNL1        0.0694
     56 H          -3.8729    3.0642    3.0126 H       1  UNL1        0.0660
     57 H          -5.5575    2.6196    2.8797 H       1  UNL1        0.0660
     58 H          -4.8248    3.6403    1.6654 H       1  UNL1        0.0660
@<TRIPOS>UNITY_ATOM_ATTR
5 1
charge 1
@<TRIPOS>BOND
     1     1    23   ar
     2     1    26   ar
     3     2     6    1
     4     2    15    1
     5     3    24    1
     6     3    27    1
     7     4    16   ar
     8     4    20   ar
     9     5    17    1
    10     5    21    1
    11     5    28    1
    12     5    29    1
    13     6     8    1
    14     6     9    1
    15     6    10    1
    16     7     8    1
    17     7    11    1
    18     7    14    1
    19     7    16    1
    20     8    30    1
    21     8    31    1
    22     9    12    1
    23     9    32    1
    24     9    33    1
    25    10    13    1
    26    10    34    1
    27    10    35    1
    28    11    15    1
    29    11    36    1
    30    11    37    1
    31    12    13    1
    32    12    38    1
    33    12    39    1
    34    13    40    1
    35    13    41    1
    36    14    17    1
    37    14    42    1
    38    14    43    1
    39    15    44    1
    40    15    45    1
    41    16    18   ar
    42    17    46    1
    43    17    47    1
    44    18    19   ar
    45    18    48    1
    46    19    22   ar
    47    19    49    1
    48    20    22   ar
    49    20    50    1
    50    21    23    1
    51    21    51    1
    52    21    52    1
    53    22    53    1
    54    23    24   ar
    55    24    25   ar
    56    25    26   ar
    57    25    54    1
    58    26    55    1
    59    27    56    1
    60    27    57    1
    61    27    58    1
@<TRIPOS>MOLECULE
66553195
 58 61 0 0 0
SMALL
GASTEIGER

@<TRIPOS>ATOM
      1 S          -4.3167    1.6091    2.6945 S.2     1  UNL1       -0.0926
      2 O           3.9947    1.8338   -0.6210 O.3     1  UNL1       -0.3733
      3 O          -5.1992   -1.5685    0.6786 O.3     1  UNL1       -0.4941
      4 N           2.3917   -1.7141    0.4672 N.ar    1  UNL1       -0.2593
      5 N          -1.6350    0.3940    2.2612 N.4     1  UNL1        0.2308
      6 C           3.9072    1.0510    0.5757 C.3     1  UNL1        0.0704
      7 C           1.4313    0.5057   -0.0051 C.3     1  UNL1        0.0224
      8 C           2.4527    0.9788    1.0713 C.3     1  UNL1       -0.0124
      9 C           4.8008    1.7382    1.6213 C.3     1  UNL1       -0.0237
     10 C           4.6231   -0.2974    0.4268 C.3     1  UNL1       -0.0237
     11 C           1.6850    1.3950   -1.2530 C.3     1  UNL1       -0.0181
     12 C           6.2268    1.3540    1.2306 C.3     1  UNL1       -0.0504
     13 C           6.1087    0.0588    0.4313 C.3     1  UNL1       -0.0504
     14 C          -0.0007    0.8133    0.4991 C.3     1  UNL1       -0.0013
     15 C           3.1485    1.4020   -1.6812 C.3     1  UNL1        0.0492
     16 C           1.4898   -1.0143   -0.2569 C.ar    1  UNL1        0.0478
     17 C          -0.2774    0.1027    1.8165 C.3     1  UNL1       -0.0325
     18 C           0.6363   -1.5809   -1.1898 C.ar    1  UNL1       -0.0398
     19 C           0.7132   -2.9543   -1.3924 C.ar    1  UNL1       -0.0586
     20 C           2.4377   -3.0466    0.2430 C.ar    1  UNL1        0.0279
     21 C          -2.6118   -0.0704    1.2863 C.3     1  UNL1        0.0021
     22 C           1.6284   -3.7083   -0.6662 C.ar    1  UNL1       -0.0436
     23 C          -4.0220    0.2350    1.7163 C.ar    1  UNL1        0.0756
     24 C          -5.1801   -0.4547    1.4314 C.ar    1  UNL1        0.1353
     25 C          -6.3242    0.1532    2.0241 C.ar    1  UNL1       -0.0124
     26 C          -5.9972    1.2843    2.7393 C.ar    1  UNL1       -0.0203
     27 C          -4.1941   -1.7031   -0.3361 C.3     1  UNL1        0.0788
     28 H          -1.7377    1.4015    2.3829 H       1  UNL1        0.2017
     29 H          -1.7999   -0.0900    3.1438 H       1  UNL1        0.2017
     30 H           2.1628    1.9541    1.4025 H       1  UNL1        0.0302
     31 H           2.4318    0.2502    1.8546 H       1  UNL1        0.0302
     32 H           4.5711    1.3839    2.6045 H       1  UNL1        0.0293
     33 H           4.6591    2.7986    1.6388 H       1  UNL1        0.0293
     34 H           4.3502   -0.7715   -0.4928 H       1  UNL1        0.0293
     35 H           4.3659   -0.9840    1.2061 H       1  UNL1        0.0293
     36 H           1.3901    2.3979   -1.0246 H       1  UNL1        0.0296
     37 H           1.1131    0.9894   -2.0613 H       1  UNL1        0.0296
     38 H           6.8229    1.1982    2.1054 H       1  UNL1        0.0266
     39 H           6.6984    2.1260    0.6592 H       1  UNL1        0.0266
     40 H           6.4591    0.2056   -0.5690 H       1  UNL1        0.0266
     41 H           6.6986   -0.7233    0.8618 H       1  UNL1        0.0266
     42 H          -0.7081    0.4828   -0.2325 H       1  UNL1        0.0326
     43 H          -0.0890    1.8682    0.6548 H       1  UNL1        0.0326
     44 H           3.4315    0.4119   -1.9720 H       1  UNL1        0.0560
     45 H           3.2580    2.0824   -2.4997 H       1  UNL1        0.0560
     46 H          -0.1674   -0.9529    1.6803 H       1  UNL1        0.0814
     47 H           0.4168    0.4462    2.5548 H       1  UNL1        0.0814
     48 H          -0.0353   -1.0018   -1.7176 H       1  UNL1        0.0636
     49 H           0.0936   -3.4122   -2.0789 H       1  UNL1        0.0619
     50 H           3.1175   -3.6052    0.7823 H       1  UNL1        0.0829
     51 H          -2.5073   -1.1289    1.1689 H       1  UNL1        0.0873
     52 H          -2.4282    0.4396    0.3637 H       1  UNL1        0.0873
     53 H           1.7024   -4.7289   -0.8004 H       1  UNL1        0.0633
     54 H          -7.2851   -0.2110    1.9288 H       1  UNL1        0.0659
     55 H          -6.6842    1.8672    3.2427 H       1  UNL1        0.0694
     56 H          -4.3304   -2.6303   -0.8525 H       1  UNL1        0.0660
     57 H          -3.2250   -1.6865    0.1173 H       1  UNL1        0.0660
     58 H          -4.2771   -0.8929   -1.0301 H       1  UNL1        0.0660
@<TRIPOS>UNITY_ATOM_ATTR
5 1
charge 1
@<TRIPOS>BOND
     1     1    23   ar
     2     1    26   ar
     3     2     6    1
     4     2    15    1
     5     3    24    1
     6     3    27    1
     7     4    16   ar
     8     4    20   ar
     9     5    17    1
    10     5    21    1
    11     5    28    1
    12     5    29    1
    13     6     8    1
    14     6     9    1
    15     6    10    1
    16     7     8    1
    17     7    11    1
    18     7    14    1
    19     7    16    1
    20     8    30    1
    21     8    31    1
    22     9    12    1
    23     9    32    1
    24     9    33    1
    25    10    13    1
    26    10    34    1
    27    10    35    1
    28    11    15    1
    29    11    36    1
    30    11    37    1
    31    12    13    1
    32    12    38    1
    33    12    39    1
    34    13    40    1
    35    13    41    1
    36    14    17    1
    37    14    42    1
    38    14    43    1
    39    15    44    1
    40    15    45    1
    41    16    18   ar
    42    17    46    1
    43    17    47    1
    44    18    19   ar
    45    18    48    1
    46    19    22   ar
    47    19    49    1
    48    20    22   ar
    49    20    50    1
    50    21    23    1
    51    21    51    1
    52    21    52    1
    53    22    53    1
    54    23    24   ar
    55    24    25   ar
    56    25    26   ar
    57    25    54    1
    58    26    55    1
    59    27    56    1
    60    27    57    1
    61    27    58    1
@<TRIPOS>MOLECULE
66553195
 58 61 0 0 0
SMALL
GASTEIGER

@<TRIPOS>ATOM
      1 S          -1.3856    2.0432   -2.2657 S.2     1  UNL1       -0.0926
      2 O           3.9947    1.8338   -0.6210 O.3     1  UNL1       -0.3733
      3 O          -3.7946    4.6759   -0.7804 O.3     1  UNL1       -0.4941
      4 N           0.3359   -1.6114   -0.6301 N.ar    1  UNL1       -0.2593
      5 N          -1.5373    2.5691    1.2118 N.4     1  UNL1        0.2308
      6 C           3.9072    1.0510    0.5757 C.3     1  UNL1        0.0704
      7 C           1.4313    0.5057   -0.0051 C.3     1  UNL1        0.0224
      8 C           2.4527    0.9788    1.0713 C.3     1  UNL1       -0.0124
      9 C           4.8008    1.7382    1.6213 C.3     1  UNL1       -0.0237
     10 C           4.6231   -0.2974    0.4268 C.3     1  UNL1       -0.0237
     11 C           1.6850    1.3950   -1.2530 C.3     1  UNL1       -0.0181
     12 C           6.2268    1.3540    1.2306 C.3     1  UNL1       -0.0504
     13 C           6.1087    0.0588    0.4313 C.3     1  UNL1       -0.0504
     14 C          -0.0007    0.8133    0.4991 C.3     1  UNL1       -0.0013
     15 C           3.1485    1.4020   -1.6812 C.3     1  UNL1        0.0492
     16 C           1.4898   -1.0143   -0.2569 C.ar    1  UNL1        0.0478
     17 C          -0.1891    2.3072    0.7222 C.3     1  UNL1       -0.0325
     18 C           2.6922   -1.6832   -0.0944 C.ar    1  UNL1       -0.0398
     19 C           2.7117   -3.0533   -0.3305 C.ar    1  UNL1       -0.0586
     20 C           0.3934   -2.9441   -0.8507 C.ar    1  UNL1        0.0279
     21 C          -2.5353    2.0995    0.2612 C.3     1  UNL1        0.0021
     22 C           1.5446   -3.7033   -0.7163 C.ar    1  UNL1       -0.0436
     23 C          -2.3886    2.7659   -1.0809 C.ar    1  UNL1        0.0756
     24 C          -2.9663    3.9316   -1.5339 C.ar    1  UNL1        0.1353
     25 C          -2.5803    4.2353   -2.8713 C.ar    1  UNL1       -0.0124
     26 C          -1.7225    3.2902   -3.3897 C.ar    1  UNL1       -0.0203
     27 C          -3.6003    4.6552    0.6409 C.3     1  UNL1        0.0788
     28 H          -1.6536    3.5731    1.3494 H       1  UNL1        0.2017
     29 H          -1.6666    2.0715    2.0928 H       1  UNL1        0.2017
     30 H           2.1628    1.9541    1.4025 H       1  UNL1        0.0302
     31 H           2.4318    0.2502    1.8546 H       1  UNL1        0.0302
     32 H           4.5711    1.3839    2.6045 H       1  UNL1        0.0293
     33 H           4.6591    2.7986    1.6388 H       1  UNL1        0.0293
     34 H           4.3502   -0.7715   -0.4928 H       1  UNL1        0.0293
     35 H           4.3659   -0.9840    1.2061 H       1  UNL1        0.0293
     36 H           1.3901    2.3979   -1.0246 H       1  UNL1        0.0296
     37 H           1.1131    0.9894   -2.0613 H       1  UNL1        0.0296
     38 H           6.8229    1.1982    2.1054 H       1  UNL1        0.0266
     39 H           6.6984    2.1260    0.6592 H       1  UNL1        0.0266
     40 H           6.4591    0.2056   -0.5690 H       1  UNL1        0.0266
     41 H           6.6986   -0.7233    0.8618 H       1  UNL1        0.0266
     42 H          -0.1653    0.2978    1.4221 H       1  UNL1        0.0326
     43 H          -0.7011    0.4874   -0.2413 H       1  UNL1        0.0326
     44 H           3.4315    0.4119   -1.9720 H       1  UNL1        0.0560
     45 H           3.2580    2.0824   -2.4997 H       1  UNL1        0.0560
     46 H           0.5232    2.6510    1.4429 H       1  UNL1        0.0814
     47 H          -0.0440    2.8230   -0.2040 H       1  UNL1        0.0814
     48 H           3.5465   -1.1804    0.1929 H       1  UNL1        0.0636
     49 H           3.5888   -3.5857   -0.2197 H       1  UNL1        0.0619
     50 H          -0.4734   -3.4255   -1.1367 H       1  UNL1        0.0829
     51 H          -3.5097    2.3126    0.6488 H       1  UNL1        0.0873
     52 H          -2.3960    1.0472    0.1264 H       1  UNL1        0.0873
     53 H           1.5362   -4.7193   -0.8968 H       1  UNL1        0.0633
     54 H          -2.9053    5.0658   -3.3907 H       1  UNL1        0.0659
     55 H          -1.3293    3.3292   -4.3430 H       1  UNL1        0.0694
     56 H          -4.3250    5.2880    1.1091 H       1  UNL1        0.0660
     57 H          -2.6167    5.0078    0.8715 H       1  UNL1        0.0660
     58 H          -3.7142    3.6544    1.0019 H       1  UNL1        0.0660
@<TRIPOS>UNITY_ATOM_ATTR
5 1
charge 1
@<TRIPOS>BOND
     1     1    23   ar
     2     1    26   ar
     3     2     6    1
     4     2    15    1
     5     3    24    1
     6     3    27    1
     7     4    16   ar
     8     4    20   ar
     9     5    17    1
    10     5    21    1
    11     5    28    1
    12     5    29    1
    13     6     8    1
    14     6     9    1
    15     6    10    1
    16     7     8    1
    17     7    11    1
    18     7    14    1
    19     7    16    1
    20     8    30    1
    21     8    31    1
    22     9    12    1
    23     9    32    1
    24     9    33    1
    25    10    13    1
    26    10    34    1
    27    10    35    1
    28    11    15    1
    29    11    36    1
    30    11    37    1
    31    12    13    1
    32    12    38    1
    33    12    39    1
    34    13    40    1
    35    13    41    1
    36    14    17    1
    37    14    42    1
    38    14    43    1
    39    15    44    1
    40    15    45    1
    41    16    18   ar
    42    17    46    1
    43    17    47    1
    44    18    19   ar
    45    18    48    1
    46    19    22   ar
    47    19    49    1
    48    20    22   ar
    49    20    50    1
    50    21    23    1
    51    21    51    1
    52    21    52    1
    53    22    53    1
    54    23    24   ar
    55    24    25   ar
    56    25    26   ar
    57    25    54    1
    58    26    55    1
    59    27    56    1
    60    27    57    1
    61    27    58    1
@<TRIPOS>MOLECULE
66553195
 58 61 0 0 0
SMALL
GASTEIGER

@<TRIPOS>ATOM
      1 S          -0.6536   -0.7007    3.0660 S.2     1  UNL1       -0.0926
      2 O           3.9947    1.8338   -0.6210 O.3     1  UNL1       -0.3733
      3 O          -2.1140    2.8093    2.3678 O.3     1  UNL1       -0.4941
      4 N           1.7905   -1.4089   -1.5144 N.ar    1  UNL1       -0.2593
      5 N          -2.3798    0.6689   -0.0216 N.4     1  UNL1        0.2308
      6 C           3.9072    1.0510    0.5757 C.3     1  UNL1        0.0704
      7 C           1.4313    0.5057   -0.0051 C.3     1  UNL1        0.0224
      8 C           2.4527    0.9788    1.0713 C.3     1  UNL1       -0.0124
      9 C           4.8008    1.7382    1.6213 C.3     1  UNL1       -0.0237
     10 C           4.6231   -0.2974    0.4268 C.3     1  UNL1       -0.0237
     11 C           1.6850    1.3950   -1.2530 C.3     1  UNL1       -0.0181
     12 C           6.2268    1.3540    1.2306 C.3     1  UNL1       -0.0504
     13 C           6.1087    0.0588    0.4313 C.3     1  UNL1       -0.0504
     14 C          -0.0007    0.8133    0.4991 C.3     1  UNL1       -0.0013
     15 C           3.1485    1.4020   -1.6812 C.3     1  UNL1        0.0492
     16 C           1.4898   -1.0143   -0.2569 C.ar    1  UNL1        0.0478
     17 C          -1.0428    0.3538   -0.5107 C.3     1  UNL1       -0.0325
     18 C           1.2388   -1.8858    0.7906 C.ar    1  UNL1       -0.0398
     19 C           1.3008   -3.2503    0.5309 C.ar    1  UNL1       -0.0586
     20 C           1.8415   -2.7429   -1.7290 C.ar    1  UNL1        0.0279
     21 C          -2.6329    0.0163    1.2551 C.3     1  UNL1        0.0021
     22 C           1.6073   -3.6952   -0.7503 C.ar    1  UNL1       -0.0436
     23 C          -1.6612    0.4625    2.3153 C.ar    1  UNL1        0.0756
     24 C          -1.4408    1.7310    2.8056 C.ar    1  UNL1        0.1353
     25 C          -0.4313    1.7478    3.8108 C.ar    1  UNL1       -0.0124
     26 C           0.0815    0.4919    4.0505 C.ar    1  UNL1       -0.0203
     27 C          -2.5781    2.7981    1.0104 C.3     1  UNL1        0.0788
     28 H          -3.0686    0.3491   -0.7026 H       1  UNL1        0.2017
     29 H          -2.4497    1.6782    0.1086 H       1  UNL1        0.2017
     30 H           2.1628    1.9541    1.4025 H       1  UNL1        0.0302
     31 H           2.4318    0.2502    1.8546 H       1  UNL1        0.0302
     32 H           4.5711    1.3839    2.6045 H       1  UNL1        0.0293
     33 H           4.6591    2.7986    1.6388 H       1  UNL1        0.0293
     34 H           4.3502   -0.7715   -0.4928 H       1  UNL1        0.0293
     35 H           4.3659   -0.9840    1.2061 H       1  UNL1        0.0293
     36 H           1.3901    2.3979   -1.0246 H       1  UNL1        0.0296
     37 H           1.1131    0.9894   -2.0613 H       1  UNL1        0.0296
     38 H           6.8229    1.1982    2.1054 H       1  UNL1        0.0266
     39 H           6.6984    2.1260    0.6592 H       1  UNL1        0.0266
     40 H           6.4591    0.2056   -0.5690 H       1  UNL1        0.0266
     41 H           6.6986   -0.7233    0.8618 H       1  UNL1        0.0266
     42 H          -0.1000    1.8680    0.6496 H       1  UNL1        0.0326
     43 H          -0.1599    0.2879    1.4175 H       1  UNL1        0.0326
     44 H           3.4315    0.4119   -1.9720 H       1  UNL1        0.0560
     45 H           3.2580    2.0824   -2.4997 H       1  UNL1        0.0560
     46 H          -0.8788    0.8537   -1.4425 H       1  UNL1        0.0814
     47 H          -0.9581   -0.7040   -0.6482 H       1  UNL1        0.0814
     48 H           1.0130   -1.5332    1.7339 H       1  UNL1        0.0636
     49 H           1.1199   -3.9301    1.2859 H       1  UNL1        0.0619
     50 H           2.0688   -3.0719   -2.6803 H       1  UNL1        0.0829
     51 H          -2.5428   -1.0422    1.1266 H       1  UNL1        0.0873
     52 H          -3.6186    0.2831    1.5747 H       1  UNL1        0.0873
     53 H           1.6588   -4.7032   -0.9654 H       1  UNL1        0.0633
     54 H          -0.1207    2.6008    4.3017 H       1  UNL1        0.0659
     55 H           0.8214    0.2932    4.7419 H       1  UNL1        0.0694
     56 H          -3.0927    3.7128    0.8019 H       1  UNL1        0.0660
     57 H          -3.2448    1.9733    0.8682 H       1  UNL1        0.0660
     58 H          -1.7430    2.6999    0.3487 H       1  UNL1        0.0660
@<TRIPOS>UNITY_ATOM_ATTR
5 1
charge 1
@<TRIPOS>BOND
     1     1    23   ar
     2     1    26   ar
     3     2     6    1
     4     2    15    1
     5     3    24    1
     6     3    27    1
     7     4    16   ar
     8     4    20   ar
     9     5    17    1
    10     5    21    1
    11     5    28    1
    12     5    29    1
    13     6     8    1
    14     6     9    1
    15     6    10    1
    16     7     8    1
    17     7    11    1
    18     7    14    1
    19     7    16    1
    20     8    30    1
    21     8    31    1
    22     9    12    1
    23     9    32    1
    24     9    33    1
    25    10    13    1
    26    10    34    1
    27    10    35    1
    28    11    15    1
    29    11    36    1
    30    11    37    1
    31    12    13    1
    32    12    38    1
    33    12    39    1
    34    13    40    1
    35    13    41    1
    36    14    17    1
    37    14    42    1
    38    14    43    1
    39    15    44    1
    40    15    45    1
    41    16    18   ar
    42    17    46    1
    43    17    47    1
    44    18    19   ar
    45    18    48    1
    46    19    22   ar
    47    19    49    1
    48    20    22   ar
    49    20    50    1
    50    21    23    1
    51    21    51    1
    52    21    52    1
    53    22    53    1
    54    23    24   ar
    55    24    25   ar
    56    25    26   ar
    57    25    54    1
    58    26    55    1
    59    27    56    1
    60    27    57    1
    61    27    58    1
@<TRIPOS>MOLECULE
66553195
 58 61 0 0 0
SMALL
GASTEIGER

@<TRIPOS>ATOM
      1 S           0.2854    5.8211    1.9127 S.2     1  UNL1       -0.0926
      2 O           3.9947    1.8338   -0.6210 O.3     1  UNL1       -0.3733
      3 O          -1.2954    3.2672    4.3455 O.3     1  UNL1       -0.4941
      4 N           1.1728   -1.4348   -1.5019 N.ar    1  UNL1       -0.2593
      5 N          -1.5373    2.5691    1.2118 N.4     1  UNL1        0.2308
      6 C           3.9072    1.0510    0.5757 C.3     1  UNL1        0.0704
      7 C           1.4313    0.5057   -0.0051 C.3     1  UNL1        0.0224
      8 C           2.4527    0.9788    1.0713 C.3     1  UNL1       -0.0124
      9 C           4.8008    1.7382    1.6213 C.3     1  UNL1       -0.0237
     10 C           4.6231   -0.2974    0.4268 C.3     1  UNL1       -0.0237
     11 C           1.6850    1.3950   -1.2530 C.3     1  UNL1       -0.0181
     12 C           6.2268    1.3540    1.2306 C.3     1  UNL1       -0.0504
     13 C           6.1087    0.0588    0.4313 C.3     1  UNL1       -0.0504
     14 C          -0.0007    0.8133    0.4991 C.3     1  UNL1       -0.0013
     15 C           3.1485    1.4020   -1.6812 C.3     1  UNL1        0.0492
     16 C           1.4898   -1.0143   -0.2569 C.ar    1  UNL1        0.0478
     17 C          -0.1891    2.3072    0.7222 C.3     1  UNL1       -0.0325
     18 C           1.8563   -1.8599    0.7777 C.ar    1  UNL1       -0.0398
     19 C           1.9006   -3.2250    0.5177 C.ar    1  UNL1       -0.0586
     20 C           1.2269   -2.7685   -1.7172 C.ar    1  UNL1        0.0279
     21 C          -1.7472    3.9952    1.4173 C.3     1  UNL1        0.0021
     22 C           1.5815   -3.6961   -0.7510 C.ar    1  UNL1       -0.0436
     23 C          -0.7708    4.5684    2.4098 C.ar    1  UNL1        0.0756
     24 C          -0.5810    4.2259    3.7307 C.ar    1  UNL1        0.1353
     25 C           0.4451    5.0024    4.3424 C.ar    1  UNL1       -0.0124
     26 C           1.0004    5.9087    3.4660 C.ar    1  UNL1       -0.0203
     27 C          -0.6576    2.5367    5.4027 C.3     1  UNL1        0.0788
     28 H          -1.6719    2.0807    2.0971 H       1  UNL1        0.2017
     29 H          -2.2066    2.2379    0.5170 H       1  UNL1        0.2017
     30 H           2.1628    1.9541    1.4025 H       1  UNL1        0.0302
     31 H           2.4318    0.2502    1.8546 H       1  UNL1        0.0302
     32 H           4.5711    1.3839    2.6045 H       1  UNL1        0.0293
     33 H           4.6591    2.7986    1.6388 H       1  UNL1        0.0293
     34 H           4.3502   -0.7715   -0.4928 H       1  UNL1        0.0293
     35 H           4.3659   -0.9840    1.2061 H       1  UNL1        0.0293
     36 H           1.3901    2.3979   -1.0246 H       1  UNL1        0.0296
     37 H           1.1131    0.9894   -2.0613 H       1  UNL1        0.0296
     38 H           6.8229    1.1982    2.1054 H       1  UNL1        0.0266
     39 H           6.6984    2.1260    0.6592 H       1  UNL1        0.0266
     40 H           6.4591    0.2056   -0.5690 H       1  UNL1        0.0266
     41 H           6.6986   -0.7233    0.8618 H       1  UNL1        0.0266
     42 H          -0.1653    0.2978    1.4221 H       1  UNL1        0.0326
     43 H          -0.7011    0.4874   -0.2413 H       1  UNL1        0.0326
     44 H           3.4315    0.4119   -1.9720 H       1  UNL1        0.0560
     45 H           3.2580    2.0824   -2.4997 H       1  UNL1        0.0560
     46 H           0.5232    2.6510    1.4429 H       1  UNL1        0.0814
     47 H          -0.0440    2.8230   -0.2040 H       1  UNL1        0.0814
     48 H           2.0890   -1.4881    1.7119 H       1  UNL1        0.0636
     49 H           2.1692   -3.8860    1.2633 H       1  UNL1        0.0619
     50 H           0.9896   -3.1170   -2.6591 H       1  UNL1        0.0829
     51 H          -2.7415    4.1498    1.7813 H       1  UNL1        0.0873
     52 H          -1.5983    4.4910    0.4809 H       1  UNL1        0.0873
     53 H           1.6078   -4.7050   -0.9662 H       1  UNL1        0.0633
     54 H           0.7380    4.8981    5.3265 H       1  UNL1        0.0659
     55 H           1.7580    6.5632    3.7162 H       1  UNL1        0.0694
     56 H          -1.3389    1.8120    5.7970 H       1  UNL1        0.0660
     57 H          -0.3676    3.2133    6.1792 H       1  UNL1        0.0660
     58 H           0.2095    2.0399    5.0202 H       1  UNL1        0.0660
@<TRIPOS>UNITY_ATOM_ATTR
5 1
charge 1
@<TRIPOS>BOND
     1     1    23   ar
     2     1    26   ar
     3     2     6    1
     4     2    15    1
     5     3    24    1
     6     3    27    1
     7     4    16   ar
     8     4    20   ar
     9     5    17    1
    10     5    21    1
    11     5    28    1
    12     5    29    1
    13     6     8    1
    14     6     9    1
    15     6    10    1
    16     7     8    1
    17     7    11    1
    18     7    14    1
    19     7    16    1
    20     8    30    1
    21     8    31    1
    22     9    12    1
    23     9    32    1
    24     9    33    1
    25    10    13    1
    26    10    34    1
    27    10    35    1
    28    11    15    1
    29    11    36    1
    30    11    37    1
    31    12    13    1
    32    12    38    1
    33    12    39    1
    34    13    40    1
    35    13    41    1
    36    14    17    1
    37    14    42    1
    38    14    43    1
    39    15    44    1
    40    15    45    1
    41    16    18   ar
    42    17    46    1
    43    17    47    1
    44    18    19   ar
    45    18    48    1
    46    19    22   ar
    47    19    49    1
    48    20    22   ar
    49    20    50    1
    50    21    23    1
    51    21    51    1
    52    21    52    1
    53    22    53    1
    54    23    24   ar
    55    24    25   ar
    56    25    26   ar
    57    25    54    1
    58    26    55    1
    59    27    56    1
    60    27    57    1
    61    27    58    1
@<TRIPOS>MOLECULE
66553195
 58 61 0 0 0
SMALL
GASTEIGER

@<TRIPOS>ATOM
      1 S          -2.3322   -2.5230    4.8308 S.2     1  UNL1       -0.0926
      2 O           3.9947    1.8338   -0.6210 O.3     1  UNL1       -0.3733
      3 O          -2.6330   -0.3717    1.6337 O.3     1  UNL1       -0.4941
      4 N           2.6863   -1.6142   -0.0673 N.ar    1  UNL1       -0.2593
      5 N          -0.1319   -1.3376    1.6429 N.4     1  UNL1        0.2308
      6 C           3.9072    1.0510    0.5757 C.3     1  UNL1        0.0704
      7 C           1.4313    0.5057   -0.0051 C.3     1  UNL1        0.0224
      8 C           2.4527    0.9788    1.0713 C.3     1  UNL1       -0.0124
      9 C           4.8008    1.7382    1.6213 C.3     1  UNL1       -0.0237
     10 C           4.6231   -0.2974    0.4268 C.3     1  UNL1       -0.0237
     11 C           1.6850    1.3950   -1.2530 C.3     1  UNL1       -0.0181
     12 C           6.2268    1.3540    1.2306 C.3     1  UNL1       -0.0504
     13 C           6.1087    0.0588    0.4313 C.3     1  UNL1       -0.0504
     14 C          -0.0007    0.8133    0.4991 C.3     1  UNL1       -0.0013
     15 C           3.1485    1.4020   -1.6812 C.3     1  UNL1        0.0492
     16 C           1.4898   -1.0143   -0.2569 C.ar    1  UNL1        0.0478
     17 C          -0.2774    0.1027    1.8165 C.3     1  UNL1       -0.0325
     18 C           0.3423   -1.6807   -0.6553 C.ar    1  UNL1       -0.0398
     19 C           0.4282   -3.0513   -0.8728 C.ar    1  UNL1       -0.0586
     20 C           2.7313   -2.9472   -0.2884 C.ar    1  UNL1        0.0279
     21 C          -0.4083   -2.0412    2.8874 C.3     1  UNL1        0.0021
     22 C           1.6418   -3.7042   -0.6880 C.ar    1  UNL1       -0.0436
     23 C          -1.8137   -1.7971    3.3693 C.ar    1  UNL1        0.0756
     24 C          -2.8061   -1.0386    2.7882 C.ar    1  UNL1        0.1353
     25 C          -4.0080   -1.0537    3.5532 C.ar    1  UNL1       -0.0124
     26 C          -3.8885   -1.8230    4.6897 C.ar    1  UNL1       -0.0203
     27 C          -3.7373    0.3981    1.1379 C.3     1  UNL1        0.0788
     28 H           0.8224   -1.5438    1.3475 H       1  UNL1        0.2017
     29 H          -0.7985   -1.6499    0.9369 H       1  UNL1        0.2017
     30 H           2.1628    1.9541    1.4025 H       1  UNL1        0.0302
     31 H           2.4318    0.2502    1.8546 H       1  UNL1        0.0302
     32 H           4.5711    1.3839    2.6045 H       1  UNL1        0.0293
     33 H           4.6591    2.7986    1.6388 H       1  UNL1        0.0293
     34 H           4.3502   -0.7715   -0.4928 H       1  UNL1        0.0293
     35 H           4.3659   -0.9840    1.2061 H       1  UNL1        0.0293
     36 H           1.3901    2.3979   -1.0246 H       1  UNL1        0.0296
     37 H           1.1131    0.9894   -2.0613 H       1  UNL1        0.0296
     38 H           6.8229    1.1982    2.1054 H       1  UNL1        0.0266
     39 H           6.6984    2.1260    0.6592 H       1  UNL1        0.0266
     40 H           6.4591    0.2056   -0.5690 H       1  UNL1        0.0266
     41 H           6.6986   -0.7233    0.8618 H       1  UNL1        0.0266
     42 H          -0.7081    0.4828   -0.2325 H       1  UNL1        0.0326
     43 H          -0.0890    1.8682    0.6548 H       1  UNL1        0.0326
     44 H           3.4315    0.4119   -1.9720 H       1  UNL1        0.0560
     45 H           3.2580    2.0824   -2.4997 H       1  UNL1        0.0560
     46 H           0.4171    0.4430    2.5560 H       1  UNL1        0.0814
     47 H          -1.2765    0.3206    2.1315 H       1  UNL1        0.0814
     48 H          -0.5482   -1.1758   -0.7865 H       1  UNL1        0.0636
     49 H          -0.4055   -3.5819   -1.1703 H       1  UNL1        0.0619
     50 H           3.6327   -3.4307   -0.1512 H       1  UNL1        0.0829
     51 H           0.2778   -1.7033    3.6357 H       1  UNL1        0.0873
     52 H          -0.2964   -3.0901    2.7076 H       1  UNL1        0.0873
     53 H           1.7283   -4.7207   -0.8435 H       1  UNL1        0.0633
     54 H          -4.8672   -0.5477    3.2871 H       1  UNL1        0.0659
     55 H          -4.6474   -1.9611    5.3752 H       1  UNL1        0.0694
     56 H          -3.4586    0.8709    0.2193 H       1  UNL1        0.0660
     57 H          -4.0031    1.1446    1.8569 H       1  UNL1        0.0660
     58 H          -4.5739   -0.2469    0.9675 H       1  UNL1        0.0660
@<TRIPOS>UNITY_ATOM_ATTR
5 1
charge 1
@<TRIPOS>BOND
     1     1    23   ar
     2     1    26   ar
     3     2     6    1
     4     2    15    1
     5     3    24    1
     6     3    27    1
     7     4    16   ar
     8     4    20   ar
     9     5    17    1
    10     5    21    1
    11     5    28    1
    12     5    29    1
    13     6     8    1
    14     6     9    1
    15     6    10    1
    16     7     8    1
    17     7    11    1
    18     7    14    1
    19     7    16    1
    20     8    30    1
    21     8    31    1
    22     9    12    1
    23     9    32    1
    24     9    33    1
    25    10    13    1
    26    10    34    1
    27    10    35    1
    28    11    15    1
    29    11    36    1
    30    11    37    1
    31    12    13    1
    32    12    38    1
    33    12    39    1
    34    13    40    1
    35    13    41    1
    36    14    17    1
    37    14    42    1
    38    14    43    1
    39    15    44    1
    40    15    45    1
    41    16    18   ar
    42    17    46    1
    43    17    47    1
    44    18    19   ar
    45    18    48    1
    46    19    22   ar
    47    19    49    1
    48    20    22   ar
    49    20    50    1
    50    21    23    1
    51    21    51    1
    52    21    52    1
    53    22    53    1
    54    23    24   ar
    55    24    25   ar
    56    25    26   ar
    57    25    54    1
    58    26    55    1
    59    27    56    1
    60    27    57    1
    61    27    58    1
@<TRIPOS>MOLECULE
66553195
 58 61 0 0 0
SMALL
GASTEIGER

@<TRIPOS>ATOM
      1 S          -3.3649   -2.7072    1.8974 S.2     1  UNL1       -0.0926
      2 O           3.9947    1.8338   -0.6210 O.3     1  UNL1       -0.3733
      3 O          -2.7763    0.5988   -0.0169 O.3     1  UNL1       -0.4941
      4 N           2.3917   -1.7141    0.4672 N.ar    1  UNL1       -0.2593
      5 N          -0.1319   -1.3376    1.6429 N.4     1  UNL1        0.2308
      6 C           3.9072    1.0510    0.5757 C.3     1  UNL1        0.0704
      7 C           1.4313    0.5057   -0.0051 C.3     1  UNL1        0.0224
      8 C           2.4527    0.9788    1.0713 C.3     1  UNL1       -0.0124
      9 C           4.8008    1.7382    1.6213 C.3     1  UNL1       -0.0237
     10 C           4.6231   -0.2974    0.4268 C.3     1  UNL1       -0.0237
     11 C           1.6850    1.3950   -1.2530 C.3     1  UNL1       -0.0181
     12 C           6.2268    1.3540    1.2306 C.3     1  UNL1       -0.0504
     13 C           6.1087    0.0588    0.4313 C.3     1  UNL1       -0.0504
     14 C          -0.0007    0.8133    0.4991 C.3     1  UNL1       -0.0013
     15 C           3.1485    1.4020   -1.6812 C.3     1  UNL1        0.0492
     16 C           1.4898   -1.0143   -0.2569 C.ar    1  UNL1        0.0478
     17 C          -0.2774    0.1027    1.8165 C.3     1  UNL1       -0.0325
     18 C           0.6363   -1.5809   -1.1898 C.ar    1  UNL1       -0.0398
     19 C           0.7132   -2.9543   -1.3924 C.ar    1  UNL1       -0.0586
     20 C           2.4377   -3.0466    0.2430 C.ar    1  UNL1        0.0279
     21 C          -1.0532   -1.8344    0.6306 C.3     1  UNL1        0.0021
     22 C           1.6284   -3.7083   -0.6662 C.ar    1  UNL1       -0.0436
     23 C          -2.4874   -1.5502    0.9901 C.ar    1  UNL1        0.0756
     24 C          -3.2502   -0.4434    0.6880 C.ar    1  UNL1        0.1353
     25 C          -4.5724   -0.5469    1.2085 C.ar    1  UNL1       -0.0124
     26 C          -4.7699   -1.7286    1.8886 C.ar    1  UNL1       -0.0203
     27 C          -3.7066    1.3344   -0.8239 C.3     1  UNL1        0.0788
     28 H          -0.3276   -1.8024    2.5295 H       1  UNL1        0.2017
     29 H           0.8221   -1.5348    1.3403 H       1  UNL1        0.2017
     30 H           2.1628    1.9541    1.4025 H       1  UNL1        0.0302
     31 H           2.4318    0.2502    1.8546 H       1  UNL1        0.0302
     32 H           4.5711    1.3839    2.6045 H       1  UNL1        0.0293
     33 H           4.6591    2.7986    1.6388 H       1  UNL1        0.0293
     34 H           4.3502   -0.7715   -0.4928 H       1  UNL1        0.0293
     35 H           4.3659   -0.9840    1.2061 H       1  UNL1        0.0293
     36 H           1.3901    2.3979   -1.0246 H       1  UNL1        0.0296
     37 H           1.1131    0.9894   -2.0613 H       1  UNL1        0.0296
     38 H           6.8229    1.1982    2.1054 H       1  UNL1        0.0266
     39 H           6.6984    2.1260    0.6592 H       1  UNL1        0.0266
     40 H           6.4591    0.2056   -0.5690 H       1  UNL1        0.0266
     41 H           6.6986   -0.7233    0.8618 H       1  UNL1        0.0266
     42 H          -0.7081    0.4828   -0.2325 H       1  UNL1        0.0326
     43 H          -0.0890    1.8682    0.6548 H       1  UNL1        0.0326
     44 H           3.4315    0.4119   -1.9720 H       1  UNL1        0.0560
     45 H           3.2580    2.0824   -2.4997 H       1  UNL1        0.0560
     46 H           0.4171    0.4430    2.5560 H       1  UNL1        0.0814
     47 H          -1.2765    0.3206    2.1315 H       1  UNL1        0.0814
     48 H          -0.0353   -1.0018   -1.7176 H       1  UNL1        0.0636
     49 H           0.0936   -3.4122   -2.0789 H       1  UNL1        0.0619
     50 H           3.1175   -3.6052    0.7823 H       1  UNL1        0.0829
     51 H          -0.9237   -2.8922    0.5340 H       1  UNL1        0.0873
     52 H          -0.8362   -1.3339   -0.2899 H       1  UNL1        0.0873
     53 H           1.7024   -4.7289   -0.8004 H       1  UNL1        0.0633
     54 H          -5.2971    0.1782    1.0900 H       1  UNL1        0.0659
     55 H          -5.6597   -1.9928    2.3395 H       1  UNL1        0.0694
     56 H          -3.1940    2.1291   -1.3244 H       1  UNL1        0.0660
     57 H          -4.4748    1.7422   -0.2005 H       1  UNL1        0.0660
     58 H          -4.1450    0.6805   -1.5486 H       1  UNL1        0.0660
@<TRIPOS>UNITY_ATOM_ATTR
5 1
charge 1
@<TRIPOS>BOND
     1     1    23   ar
     2     1    26   ar
     3     2     6    1
     4     2    15    1
     5     3    24    1
     6     3    27    1
     7     4    16   ar
     8     4    20   ar
     9     5    17    1
    10     5    21    1
    11     5    28    1
    12     5    29    1
    13     6     8    1
    14     6     9    1
    15     6    10    1
    16     7     8    1
    17     7    11    1
    18     7    14    1
    19     7    16    1
    20     8    30    1
    21     8    31    1
    22     9    12    1
    23     9    32    1
    24     9    33    1
    25    10    13    1
    26    10    34    1
    27    10    35    1
    28    11    15    1
    29    11    36    1
    30    11    37    1
    31    12    13    1
    32    12    38    1
    33    12    39    1
    34    13    40    1
    35    13    41    1
    36    14    17    1
    37    14    42    1
    38    14    43    1
    39    15    44    1
    40    15    45    1
    41    16    18   ar
    42    17    46    1
    43    17    47    1
    44    18    19   ar
    45    18    48    1
    46    19    22   ar
    47    19    49    1
    48    20    22   ar
    49    20    50    1
    50    21    23    1
    51    21    51    1
    52    21    52    1
    53    22    53    1
    54    23    24   ar
    55    24    25   ar
    56    25    26   ar
    57    25    54    1
    58    26    55    1
    59    27    56    1
    60    27    57    1
    61    27    58    1
@<TRIPOS>MOLECULE
66553195
 58 61 0 0 0
SMALL
GASTEIGER

@<TRIPOS>ATOM
      1 S          -4.5515    0.2882    2.8429 S.2     1  UNL1       -0.0926
      2 O           3.9947    1.8338   -0.6210 O.3     1  UNL1       -0.3733
      3 O          -3.0217   -0.1101    6.3701 O.3     1  UNL1       -0.4941
      4 N           1.1728   -1.4348   -1.5019 N.ar    1  UNL1       -0.2593
      5 N          -1.6350    0.3940    2.2612 N.4     1  UNL1        0.2308
      6 C           3.9072    1.0510    0.5757 C.3     1  UNL1        0.0704
      7 C           1.4313    0.5057   -0.0051 C.3     1  UNL1        0.0224
      8 C           2.4527    0.9788    1.0713 C.3     1  UNL1       -0.0124
      9 C           4.8008    1.7382    1.6213 C.3     1  UNL1       -0.0237
     10 C           4.6231   -0.2974    0.4268 C.3     1  UNL1       -0.0237
     11 C           1.6850    1.3950   -1.2530 C.3     1  UNL1       -0.0181
     12 C           6.2268    1.3540    1.2306 C.3     1  UNL1       -0.0504
     13 C           6.1087    0.0588    0.4313 C.3     1  UNL1       -0.0504
     14 C          -0.0007    0.8133    0.4991 C.3     1  UNL1       -0.0013
     15 C           3.1485    1.4020   -1.6812 C.3     1  UNL1        0.0492
     16 C           1.4898   -1.0143   -0.2569 C.ar    1  UNL1        0.0478
     17 C          -0.2774    0.1027    1.8165 C.3     1  UNL1       -0.0325
     18 C           1.8563   -1.8599    0.7777 C.ar    1  UNL1       -0.0398
     19 C           1.9006   -3.2250    0.5177 C.ar    1  UNL1       -0.0586
     20 C           1.2269   -2.7685   -1.7172 C.ar    1  UNL1        0.0279
     21 C          -1.9180   -0.2623    3.5298 C.3     1  UNL1        0.0021
     22 C           1.5815   -3.6961   -0.7510 C.ar    1  UNL1       -0.0436
     23 C          -3.3217    0.0104    4.0014 C.ar    1  UNL1        0.0756
     24 C          -3.8020    0.0754    5.2910 C.ar    1  UNL1        0.1353
     25 C          -5.1981    0.3570    5.3281 C.ar    1  UNL1       -0.0124
     26 C          -5.7318    0.4964    4.0658 C.ar    1  UNL1       -0.0203
     27 C          -1.6387    0.2553    6.2619 C.3     1  UNL1        0.0788
     28 H          -2.2953    0.0614    1.5586 H       1  UNL1        0.2017
     29 H          -1.7274    1.4019    2.3879 H       1  UNL1        0.2017
     30 H           2.1628    1.9541    1.4025 H       1  UNL1        0.0302
     31 H           2.4318    0.2502    1.8546 H       1  UNL1        0.0302
     32 H           4.5711    1.3839    2.6045 H       1  UNL1        0.0293
     33 H           4.6591    2.7986    1.6388 H       1  UNL1        0.0293
     34 H           4.3502   -0.7715   -0.4928 H       1  UNL1        0.0293
     35 H           4.3659   -0.9840    1.2061 H       1  UNL1        0.0293
     36 H           1.3901    2.3979   -1.0246 H       1  UNL1        0.0296
     37 H           1.1131    0.9894   -2.0613 H       1  UNL1        0.0296
     38 H           6.8229    1.1982    2.1054 H       1  UNL1        0.0266
     39 H           6.6984    2.1260    0.6592 H       1  UNL1        0.0266
     40 H           6.4591    0.2056   -0.5690 H       1  UNL1        0.0266
     41 H           6.6986   -0.7233    0.8618 H       1  UNL1        0.0266
     42 H          -0.7081    0.4828   -0.2325 H       1  UNL1        0.0326
     43 H          -0.0890    1.8682    0.6548 H       1  UNL1        0.0326
     44 H           3.4315    0.4119   -1.9720 H       1  UNL1        0.0560
     45 H           3.2580    2.0824   -2.4997 H       1  UNL1        0.0560
     46 H          -0.1674   -0.9529    1.6803 H       1  UNL1        0.0814
     47 H           0.4168    0.4462    2.5548 H       1  UNL1        0.0814
     48 H           2.0890   -1.4881    1.7119 H       1  UNL1        0.0636
     49 H           2.1692   -3.8860    1.2633 H       1  UNL1        0.0619
     50 H           0.9896   -3.1170   -2.6591 H       1  UNL1        0.0829
     51 H          -1.2296    0.0966    4.2663 H       1  UNL1        0.0873
     52 H          -1.8146   -1.3178    3.3878 H       1  UNL1        0.0873
     53 H           1.6078   -4.7050   -0.9662 H       1  UNL1        0.0633
     54 H          -5.7454    0.4461    6.1986 H       1  UNL1        0.0659
     55 H          -6.7257    0.7021    3.8791 H       1  UNL1        0.0694
     56 H          -1.1432    0.0546    7.1888 H       1  UNL1        0.0660
     57 H          -1.5620    1.2982    6.0349 H       1  UNL1        0.0660
     58 H          -1.1793   -0.3143    5.4812 H       1  UNL1        0.0660
@<TRIPOS>UNITY_ATOM_ATTR
5 1
charge 1
@<TRIPOS>BOND
     1     1    23   ar
     2     1    26   ar
     3     2     6    1
     4     2    15    1
     5     3    24    1
     6     3    27    1
     7     4    16   ar
     8     4    20   ar
     9     5    17    1
    10     5    21    1
    11     5    28    1
    12     5    29    1
    13     6     8    1
    14     6     9    1
    15     6    10    1
    16     7     8    1
    17     7    11    1
    18     7    14    1
    19     7    16    1
    20     8    30    1
    21     8    31    1
    22     9    12    1
    23     9    32    1
    24     9    33    1
    25    10    13    1
    26    10    34    1
    27    10    35    1
    28    11    15    1
    29    11    36    1
    30    11    37    1
    31    12    13    1
    32    12    38    1
    33    12    39    1
    34    13    40    1
    35    13    41    1
    36    14    17    1
    37    14    42    1
    38    14    43    1
    39    15    44    1
    40    15    45    1
    41    16    18   ar
    42    17    46    1
    43    17    47    1
    44    18    19   ar
    45    18    48    1
    46    19    22   ar
    47    19    49    1
    48    20    22   ar
    49    20    50    1
    50    21    23    1
    51    21    51    1
    52    21    52    1
    53    22    53    1
    54    23    24   ar
    55    24    25   ar
    56    25    26   ar
    57    25    54    1
    58    26    55    1
    59    27    56    1
    60    27    57    1
    61    27    58    1
@<TRIPOS>MOLECULE
66553195
 58 61 0 0 0
SMALL
GASTEIGER

@<TRIPOS>ATOM
      1 S          -4.2126    3.1606    1.9595 S.2     1  UNL1       -0.0926
      2 O           3.9947    1.8338   -0.6210 O.3     1  UNL1       -0.3733
      3 O          -3.2710    0.9392    4.9793 O.3     1  UNL1       -0.4941
      4 N           1.7905   -1.4089   -1.5144 N.ar    1  UNL1       -0.2593
      5 N          -1.6350    0.3940    2.2612 N.4     1  UNL1        0.2308
      6 C           3.9072    1.0510    0.5757 C.3     1  UNL1        0.0704
      7 C           1.4313    0.5057   -0.0051 C.3     1  UNL1        0.0224
      8 C           2.4527    0.9788    1.0713 C.3     1  UNL1       -0.0124
      9 C           4.8008    1.7382    1.6213 C.3     1  UNL1       -0.0237
     10 C           4.6231   -0.2974    0.4268 C.3     1  UNL1       -0.0237
     11 C           1.6850    1.3950   -1.2530 C.3     1  UNL1       -0.0181
     12 C           6.2268    1.3540    1.2306 C.3     1  UNL1       -0.0504
     13 C           6.1087    0.0588    0.4313 C.3     1  UNL1       -0.0504
     14 C          -0.0007    0.8133    0.4991 C.3     1  UNL1       -0.0013
     15 C           3.1485    1.4020   -1.6812 C.3     1  UNL1        0.0492
     16 C           1.4898   -1.0143   -0.2569 C.ar    1  UNL1        0.0478
     17 C          -0.2774    0.1027    1.8165 C.3     1  UNL1       -0.0325
     18 C           1.2388   -1.8858    0.7906 C.ar    1  UNL1       -0.0398
     19 C           1.3008   -3.2503    0.5309 C.ar    1  UNL1       -0.0586
     20 C           1.8415   -2.7429   -1.7290 C.ar    1  UNL1        0.0279
     21 C          -1.8260    1.8261    2.4428 C.3     1  UNL1        0.0021
     22 C           1.6073   -3.6952   -0.7503 C.ar    1  UNL1       -0.0436
     23 C          -3.2171    2.1503    2.9188 C.ar    1  UNL1        0.0756
     24 C          -3.8535    1.7397    4.0696 C.ar    1  UNL1        0.1353
     25 C          -5.1759    2.2614    4.1647 C.ar    1  UNL1       -0.0124
     26 C          -5.4999    3.0508    3.0832 C.ar    1  UNL1       -0.0203
     27 C          -1.8452    1.0163    5.1175 C.3     1  UNL1        0.0788
     28 H          -1.8051   -0.0806    3.1479 H       1  UNL1        0.2017
     29 H          -2.2885    0.0656    1.5503 H       1  UNL1        0.2017
     30 H           2.1628    1.9541    1.4025 H       1  UNL1        0.0302
     31 H           2.4318    0.2502    1.8546 H       1  UNL1        0.0302
     32 H           4.5711    1.3839    2.6045 H       1  UNL1        0.0293
     33 H           4.6591    2.7986    1.6388 H       1  UNL1        0.0293
     34 H           4.3502   -0.7715   -0.4928 H       1  UNL1        0.0293
     35 H           4.3659   -0.9840    1.2061 H       1  UNL1        0.0293
     36 H           1.3901    2.3979   -1.0246 H       1  UNL1        0.0296
     37 H           1.1131    0.9894   -2.0613 H       1  UNL1        0.0296
     38 H           6.8229    1.1982    2.1054 H       1  UNL1        0.0266
     39 H           6.6984    2.1260    0.6592 H       1  UNL1        0.0266
     40 H           6.4591    0.2056   -0.5690 H       1  UNL1        0.0266
     41 H           6.6986   -0.7233    0.8618 H       1  UNL1        0.0266
     42 H          -0.7081    0.4828   -0.2325 H       1  UNL1        0.0326
     43 H          -0.0890    1.8682    0.6548 H       1  UNL1        0.0326
     44 H           3.4315    0.4119   -1.9720 H       1  UNL1        0.0560
     45 H           3.2580    2.0824   -2.4997 H       1  UNL1        0.0560
     46 H          -0.1674   -0.9529    1.6803 H       1  UNL1        0.0814
     47 H           0.4168    0.4462    2.5548 H       1  UNL1        0.0814
     48 H           1.0130   -1.5332    1.7339 H       1  UNL1        0.0636
     49 H           1.1199   -3.9301    1.2859 H       1  UNL1        0.0619
     50 H           2.0688   -3.0719   -2.6803 H       1  UNL1        0.0829
     51 H          -1.6562    2.3191    1.5083 H       1  UNL1        0.0873
     52 H          -1.1339    2.1616    3.1867 H       1  UNL1        0.0873
     53 H           1.6588   -4.7032   -0.9654 H       1  UNL1        0.0633
     54 H          -5.8159    2.0704    4.9515 H       1  UNL1        0.0659
     55 H          -6.4110    3.5206    2.9643 H       1  UNL1        0.0694
     56 H          -1.5222    0.3291    5.8714 H       1  UNL1        0.0660
     57 H          -1.5673    2.0107    5.3985 H       1  UNL1        0.0660
     58 H          -1.3825    0.7667    4.1855 H       1  UNL1        0.0660
@<TRIPOS>UNITY_ATOM_ATTR
5 1
charge 1
@<TRIPOS>BOND
     1     1    23   ar
     2     1    26   ar
     3     2     6    1
     4     2    15    1
     5     3    24    1
     6     3    27    1
     7     4    16   ar
     8     4    20   ar
     9     5    17    1
    10     5    21    1
    11     5    28    1
    12     5    29    1
    13     6     8    1
    14     6     9    1
    15     6    10    1
    16     7     8    1
    17     7    11    1
    18     7    14    1
    19     7    16    1
    20     8    30    1
    21     8    31    1
    22     9    12    1
    23     9    32    1
    24     9    33    1
    25    10    13    1
    26    10    34    1
    27    10    35    1
    28    11    15    1
    29    11    36    1
    30    11    37    1
    31    12    13    1
    32    12    38    1
    33    12    39    1
    34    13    40    1
    35    13    41    1
    36    14    17    1
    37    14    42    1
    38    14    43    1
    39    15    44    1
    40    15    45    1
    41    16    18   ar
    42    17    46    1
    43    17    47    1
    44    18    19   ar
    45    18    48    1
    46    19    22   ar
    47    19    49    1
    48    20    22   ar
    49    20    50    1
    50    21    23    1
    51    21    51    1
    52    21    52    1
    53    22    53    1
    54    23    24   ar
    55    24    25   ar
    56    25    26   ar
    57    25    54    1
    58    26    55    1
    59    27    56    1
    60    27    57    1
    61    27    58    1
@<TRIPOS>MOLECULE
66553195
 58 61 0 0 0
SMALL
GASTEIGER

@<TRIPOS>ATOM
      1 S           0.4793   -0.6386    4.8796 S.2     1  UNL1       -0.0926
      2 O           3.9947    1.8338   -0.6210 O.3     1  UNL1       -0.3733
      3 O          -2.2182    2.0635    5.4815 O.3     1  UNL1       -0.4941
      4 N           2.3917   -1.7141    0.4672 N.ar    1  UNL1       -0.2593
      5 N          -1.6350    0.3940    2.2612 N.4     1  UNL1        0.2308
      6 C           3.9072    1.0510    0.5757 C.3     1  UNL1        0.0704
      7 C           1.4313    0.5057   -0.0051 C.3     1  UNL1        0.0224
      8 C           2.4527    0.9788    1.0713 C.3     1  UNL1       -0.0124
      9 C           4.8008    1.7382    1.6213 C.3     1  UNL1       -0.0237
     10 C           4.6231   -0.2974    0.4268 C.3     1  UNL1       -0.0237
     11 C           1.6850    1.3950   -1.2530 C.3     1  UNL1       -0.0181
     12 C           6.2268    1.3540    1.2306 C.3     1  UNL1       -0.0504
     13 C           6.1087    0.0588    0.4313 C.3     1  UNL1       -0.0504
     14 C          -0.0007    0.8133    0.4991 C.3     1  UNL1       -0.0013
     15 C           3.1485    1.4020   -1.6812 C.3     1  UNL1        0.0492
     16 C           1.4898   -1.0143   -0.2569 C.ar    1  UNL1        0.0478
     17 C          -0.2774    0.1027    1.8165 C.3     1  UNL1       -0.0325
     18 C           0.6363   -1.5809   -1.1898 C.ar    1  UNL1       -0.0398
     19 C           0.7132   -2.9543   -1.3924 C.ar    1  UNL1       -0.0586
     20 C           2.4377   -3.0466    0.2430 C.ar    1  UNL1        0.0279
     21 C          -1.9180   -0.2623    3.5298 C.3     1  UNL1        0.0021
     22 C           1.6284   -3.7083   -0.6662 C.ar    1  UNL1       -0.0436
     23 C          -0.9897    0.2020    4.6206 C.ar    1  UNL1        0.0756
     24 C          -1.1428    1.2566    5.4937 C.ar    1  UNL1        0.1353
     25 C          -0.0392    1.3759    6.3870 C.ar    1  UNL1       -0.0124
     26 C           0.9152    0.4081    6.1627 C.ar    1  UNL1       -0.0203
     27 C          -2.8860    2.2631    4.2276 C.3     1  UNL1        0.0788
     28 H          -2.2953    0.0614    1.5586 H       1  UNL1        0.2017
     29 H          -1.7274    1.4019    2.3879 H       1  UNL1        0.2017
     30 H           2.1628    1.9541    1.4025 H       1  UNL1        0.0302
     31 H           2.4318    0.2502    1.8546 H       1  UNL1        0.0302
     32 H           4.5711    1.3839    2.6045 H       1  UNL1        0.0293
     33 H           4.6591    2.7986    1.6388 H       1  UNL1        0.0293
     34 H           4.3502   -0.7715   -0.4928 H       1  UNL1        0.0293
     35 H           4.3659   -0.9840    1.2061 H       1  UNL1        0.0293
     36 H           1.3901    2.3979   -1.0246 H       1  UNL1        0.0296
     37 H           1.1131    0.9894   -2.0613 H       1  UNL1        0.0296
     38 H           6.8229    1.1982    2.1054 H       1  UNL1        0.0266
     39 H           6.6984    2.1260    0.6592 H       1  UNL1        0.0266
     40 H           6.4591    0.2056   -0.5690 H       1  UNL1        0.0266
     41 H           6.6986   -0.7233    0.8618 H       1  UNL1        0.0266
     42 H          -0.7081    0.4828   -0.2325 H       1  UNL1        0.0326
     43 H          -0.0890    1.8682    0.6548 H       1  UNL1        0.0326
     44 H           3.4315    0.4119   -1.9720 H       1  UNL1        0.0560
     45 H           3.2580    2.0824   -2.4997 H       1  UNL1        0.0560
     46 H          -0.1674   -0.9529    1.6803 H       1  UNL1        0.0814
     47 H           0.4168    0.4462    2.5548 H       1  UNL1        0.0814
     48 H          -0.0353   -1.0018   -1.7176 H       1  UNL1        0.0636
     49 H           0.0936   -3.4122   -2.0789 H       1  UNL1        0.0619
     50 H           3.1175   -3.6052    0.7823 H       1  UNL1        0.0829
     51 H          -1.8047   -1.3191    3.4056 H       1  UNL1        0.0873
     52 H          -2.9182   -0.0131    3.8167 H       1  UNL1        0.0873
     53 H           1.7024   -4.7289   -0.8004 H       1  UNL1        0.0633
     54 H           0.0363    2.1020    7.1165 H       1  UNL1        0.0659
     55 H           1.7897    0.3239    6.7040 H       1  UNL1        0.0694
     56 H          -3.7170    2.9226    4.3672 H       1  UNL1        0.0660
     57 H          -3.2356    1.3225    3.8560 H       1  UNL1        0.0660
     58 H          -2.2036    2.6930    3.5245 H       1  UNL1        0.0660
@<TRIPOS>UNITY_ATOM_ATTR
5 1
charge 1
@<TRIPOS>BOND
     1     1    23   ar
     2     1    26   ar
     3     2     6    1
     4     2    15    1
     5     3    24    1
     6     3    27    1
     7     4    16   ar
     8     4    20   ar
     9     5    17    1
    10     5    21    1
    11     5    28    1
    12     5    29    1
    13     6     8    1
    14     6     9    1
    15     6    10    1
    16     7     8    1
    17     7    11    1
    18     7    14    1
    19     7    16    1
    20     8    30    1
    21     8    31    1
    22     9    12    1
    23     9    32    1
    24     9    33    1
    25    10    13    1
    26    10    34    1
    27    10    35    1
    28    11    15    1
    29    11    36    1
    30    11    37    1
    31    12    13    1
    32    12    38    1
    33    12    39    1
    34    13    40    1
    35    13    41    1
    36    14    17    1
    37    14    42    1
    38    14    43    1
    39    15    44    1
    40    15    45    1
    41    16    18   ar
    42    17    46    1
    43    17    47    1
    44    18    19   ar
    45    18    48    1
    46    19    22   ar
    47    19    49    1
    48    20    22   ar
    49    20    50    1
    50    21    23    1
    51    21    51    1
    52    21    52    1
    53    22    53    1
    54    23    24   ar
    55    24    25   ar
    56    25    26   ar
    57    25    54    1
    58    26    55    1
    59    27    56    1
    60    27    57    1
    61    27    58    1
@<TRIPOS>MOLECULE
66553195
 58 61 0 0 0
SMALL
GASTEIGER

@<TRIPOS>ATOM
      1 S          -3.1210   -2.7535    3.7691 S.2     1  UNL1       -0.0926
      2 O           3.9947    1.8338   -0.6210 O.3     1  UNL1       -0.3733
      3 O           0.5270   -1.9311    2.7910 O.3     1  UNL1       -0.4941
      4 N           0.3359   -1.6114   -0.6301 N.ar    1  UNL1       -0.2593
      5 N          -1.6350    0.3940    2.2612 N.4     1  UNL1        0.2308
      6 C           3.9072    1.0510    0.5757 C.3     1  UNL1        0.0704
      7 C           1.4313    0.5057   -0.0051 C.3     1  UNL1        0.0224
      8 C           2.4527    0.9788    1.0713 C.3     1  UNL1       -0.0124
      9 C           4.8008    1.7382    1.6213 C.3     1  UNL1       -0.0237
     10 C           4.6231   -0.2974    0.4268 C.3     1  UNL1       -0.0237
     11 C           1.6850    1.3950   -1.2530 C.3     1  UNL1       -0.0181
     12 C           6.2268    1.3540    1.2306 C.3     1  UNL1       -0.0504
     13 C           6.1087    0.0588    0.4313 C.3     1  UNL1       -0.0504
     14 C          -0.0007    0.8133    0.4991 C.3     1  UNL1       -0.0013
     15 C           3.1485    1.4020   -1.6812 C.3     1  UNL1        0.0492
     16 C           1.4898   -1.0143   -0.2569 C.ar    1  UNL1        0.0478
     17 C          -0.2774    0.1027    1.8165 C.3     1  UNL1       -0.0325
     18 C           2.6922   -1.6832   -0.0944 C.ar    1  UNL1       -0.0398
     19 C           2.7117   -3.0533   -0.3305 C.ar    1  UNL1       -0.0586
     20 C           0.3934   -2.9441   -0.8507 C.ar    1  UNL1        0.0279
     21 C          -1.9180   -0.2623    3.5298 C.3     1  UNL1        0.0021
     22 C           1.5446   -3.7033   -0.7163 C.ar    1  UNL1       -0.0436
     23 C          -1.7694   -1.7575    3.4329 C.ar    1  UNL1        0.0756
     24 C          -0.6549   -2.4944    3.0971 C.ar    1  UNL1        0.1353
     25 C          -0.9143   -3.8952    3.1162 C.ar    1  UNL1       -0.0124
     26 C          -2.2169   -4.1757    3.4656 C.ar    1  UNL1       -0.0203
     27 C           1.6096   -2.8048    2.4409 C.3     1  UNL1        0.0788
     28 H          -2.2953    0.0614    1.5586 H       1  UNL1        0.2017
     29 H          -1.7274    1.4019    2.3879 H       1  UNL1        0.2017
     30 H           2.1628    1.9541    1.4025 H       1  UNL1        0.0302
     31 H           2.4318    0.2502    1.8546 H       1  UNL1        0.0302
     32 H           4.5711    1.3839    2.6045 H       1  UNL1        0.0293
     33 H           4.6591    2.7986    1.6388 H       1  UNL1        0.0293
     34 H           4.3502   -0.7715   -0.4928 H       1  UNL1        0.0293
     35 H           4.3659   -0.9840    1.2061 H       1  UNL1        0.0293
     36 H           1.3901    2.3979   -1.0246 H       1  UNL1        0.0296
     37 H           1.1131    0.9894   -2.0613 H       1  UNL1        0.0296
     38 H           6.8229    1.1982    2.1054 H       1  UNL1        0.0266
     39 H           6.6984    2.1260    0.6592 H       1  UNL1        0.0266
     40 H           6.4591    0.2056   -0.5690 H       1  UNL1        0.0266
     41 H           6.6986   -0.7233    0.8618 H       1  UNL1        0.0266
     42 H          -0.7081    0.4828   -0.2325 H       1  UNL1        0.0326
     43 H          -0.0890    1.8682    0.6548 H       1  UNL1        0.0326
     44 H           3.4315    0.4119   -1.9720 H       1  UNL1        0.0560
     45 H           3.2580    2.0824   -2.4997 H       1  UNL1        0.0560
     46 H          -0.1674   -0.9529    1.6803 H       1  UNL1        0.0814
     47 H           0.4168    0.4462    2.5548 H       1  UNL1        0.0814
     48 H           3.5465   -1.1804    0.1929 H       1  UNL1        0.0636
     49 H           3.5888   -3.5857   -0.2197 H       1  UNL1        0.0619
     50 H          -0.4734   -3.4255   -1.1367 H       1  UNL1        0.0829
     51 H          -2.9213   -0.0325    3.8222 H       1  UNL1        0.0873
     52 H          -1.2146    0.0951    4.2526 H       1  UNL1        0.0873
     53 H           1.5362   -4.7193   -0.8968 H       1  UNL1        0.0633
     54 H          -0.2090   -4.6153    2.8942 H       1  UNL1        0.0659
     55 H          -2.6025   -5.1303    3.5362 H       1  UNL1        0.0694
     56 H           2.4811   -2.2233    2.2236 H       1  UNL1        0.0660
     57 H           1.3401   -3.3792    1.5793 H       1  UNL1        0.0660
     58 H           1.8152   -3.4635    3.2587 H       1  UNL1        0.0660
@<TRIPOS>UNITY_ATOM_ATTR
5 1
charge 1
@<TRIPOS>BOND
     1     1    23   ar
     2     1    26   ar
     3     2     6    1
     4     2    15    1
     5     3    24    1
     6     3    27    1
     7     4    16   ar
     8     4    20   ar
     9     5    17    1
    10     5    21    1
    11     5    28    1
    12     5    29    1
    13     6     8    1
    14     6     9    1
    15     6    10    1
    16     7     8    1
    17     7    11    1
    18     7    14    1
    19     7    16    1
    20     8    30    1
    21     8    31    1
    22     9    12    1
    23     9    32    1
    24     9    33    1
    25    10    13    1
    26    10    34    1
    27    10    35    1
    28    11    15    1
    29    11    36    1
    30    11    37    1
    31    12    13    1
    32    12    38    1
    33    12    39    1
    34    13    40    1
    35    13    41    1
    36    14    17    1
    37    14    42    1
    38    14    43    1
    39    15    44    1
    40    15    45    1
    41    16    18   ar
    42    17    46    1
    43    17    47    1
    44    18    19   ar
    45    18    48    1
    46    19    22   ar
    47    19    49    1
    48    20    22   ar
    49    20    50    1
    50    21    23    1
    51    21    51    1
    52    21    52    1
    53    22    53    1
    54    23    24   ar
    55    24    25   ar
    56    25    26   ar
    57    25    54    1
    58    26    55    1
    59    27    56    1
    60    27    57    1
    61    27    58    1
@<TRIPOS>MOLECULE
66553195
 58 61 0 0 0
SMALL
GASTEIGER

@<TRIPOS>ATOM
      1 S          -4.4091    1.8245    2.2003 S.2     1  UNL1       -0.0926
      2 O           3.9947    1.8338   -0.6210 O.3     1  UNL1       -0.3733
      3 O          -4.7110    3.8459   -1.0804 O.3     1  UNL1       -0.4941
      4 N           1.7905   -1.4089   -1.5144 N.ar    1  UNL1       -0.2593
      5 N          -2.3798    0.6689   -0.0216 N.4     1  UNL1        0.2308
      6 C           3.9072    1.0510    0.5757 C.3     1  UNL1        0.0704
      7 C           1.4313    0.5057   -0.0051 C.3     1  UNL1        0.0224
      8 C           2.4527    0.9788    1.0713 C.3     1  UNL1       -0.0124
      9 C           4.8008    1.7382    1.6213 C.3     1  UNL1       -0.0237
     10 C           4.6231   -0.2974    0.4268 C.3     1  UNL1       -0.0237
     11 C           1.6850    1.3950   -1.2530 C.3     1  UNL1       -0.0181
     12 C           6.2268    1.3540    1.2306 C.3     1  UNL1       -0.0504
     13 C           6.1087    0.0588    0.4313 C.3     1  UNL1       -0.0504
     14 C          -0.0007    0.8133    0.4991 C.3     1  UNL1       -0.0013
     15 C           3.1485    1.4020   -1.6812 C.3     1  UNL1        0.0492
     16 C           1.4898   -1.0143   -0.2569 C.ar    1  UNL1        0.0478
     17 C          -1.0428    0.3538   -0.5107 C.3     1  UNL1       -0.0325
     18 C           1.2388   -1.8858    0.7906 C.ar    1  UNL1       -0.0398
     19 C           1.3008   -3.2503    0.5309 C.ar    1  UNL1       -0.0586
     20 C           1.8415   -2.7429   -1.7290 C.ar    1  UNL1        0.0279
     21 C          -2.5388    2.1040    0.1669 C.3     1  UNL1        0.0021
     22 C           1.6073   -3.6952   -0.7503 C.ar    1  UNL1       -0.0436
     23 C          -3.9076    2.4526    0.6884 C.ar    1  UNL1        0.0756
     24 C          -4.8767    3.2424    0.1096 C.ar    1  UNL1        0.1353
     25 C          -6.0462    3.3329    0.9182 C.ar    1  UNL1       -0.0124
     26 C          -5.9266    2.6091    2.0841 C.ar    1  UNL1       -0.0203
     27 C          -3.3774    4.2140   -1.4598 C.3     1  UNL1        0.0788
     28 H          -2.5293    0.1964    0.8698 H       1  UNL1        0.2017
     29 H          -3.0620    0.3531   -0.7110 H       1  UNL1        0.2017
     30 H           2.1628    1.9541    1.4025 H       1  UNL1        0.0302
     31 H           2.4318    0.2502    1.8546 H       1  UNL1        0.0302
     32 H           4.5711    1.3839    2.6045 H       1  UNL1        0.0293
     33 H           4.6591    2.7986    1.6388 H       1  UNL1        0.0293
     34 H           4.3502   -0.7715   -0.4928 H       1  UNL1        0.0293
     35 H           4.3659   -0.9840    1.2061 H       1  UNL1        0.0293
     36 H           1.3901    2.3979   -1.0246 H       1  UNL1        0.0296
     37 H           1.1131    0.9894   -2.0613 H       1  UNL1        0.0296
     38 H           6.8229    1.1982    2.1054 H       1  UNL1        0.0266
     39 H           6.6984    2.1260    0.6592 H       1  UNL1        0.0266
     40 H           6.4591    0.2056   -0.5690 H       1  UNL1        0.0266
     41 H           6.6986   -0.7233    0.8618 H       1  UNL1        0.0266
     42 H          -0.1000    1.8680    0.6496 H       1  UNL1        0.0326
     43 H          -0.1599    0.2879    1.4175 H       1  UNL1        0.0326
     44 H           3.4315    0.4119   -1.9720 H       1  UNL1        0.0560
     45 H           3.2580    2.0824   -2.4997 H       1  UNL1        0.0560
     46 H          -0.8788    0.8537   -1.4425 H       1  UNL1        0.0814
     47 H          -0.9581   -0.7040   -0.6482 H       1  UNL1        0.0814
     48 H           1.0130   -1.5332    1.7339 H       1  UNL1        0.0636
     49 H           1.1199   -3.9301    1.2859 H       1  UNL1        0.0619
     50 H           2.0688   -3.0719   -2.6803 H       1  UNL1        0.0829
     51 H          -2.3909    2.5950   -0.7723 H       1  UNL1        0.0873
     52 H          -1.8169    2.4261    0.8880 H       1  UNL1        0.0873
     53 H           1.6588   -4.7032   -0.9654 H       1  UNL1        0.0633
     54 H          -6.8846    3.8769    0.6606 H       1  UNL1        0.0659
     55 H          -6.6645    2.5470    2.8029 H       1  UNL1        0.0694
     56 H          -3.3965    4.6811   -2.4223 H       1  UNL1        0.0660
     57 H          -2.7635    3.3384   -1.5004 H       1  UNL1        0.0660
     58 H          -2.9774    4.8970   -0.7398 H       1  UNL1        0.0660
@<TRIPOS>UNITY_ATOM_ATTR
5 1
charge 1
@<TRIPOS>BOND
     1     1    23   ar
     2     1    26   ar
     3     2     6    1
     4     2    15    1
     5     3    24    1
     6     3    27    1
     7     4    16   ar
     8     4    20   ar
     9     5    17    1
    10     5    21    1
    11     5    28    1
    12     5    29    1
    13     6     8    1
    14     6     9    1
    15     6    10    1
    16     7     8    1
    17     7    11    1
    18     7    14    1
    19     7    16    1
    20     8    30    1
    21     8    31    1
    22     9    12    1
    23     9    32    1
    24     9    33    1
    25    10    13    1
    26    10    34    1
    27    10    35    1
    28    11    15    1
    29    11    36    1
    30    11    37    1
    31    12    13    1
    32    12    38    1
    33    12    39    1
    34    13    40    1
    35    13    41    1
    36    14    17    1
    37    14    42    1
    38    14    43    1
    39    15    44    1
    40    15    45    1
    41    16    18   ar
    42    17    46    1
    43    17    47    1
    44    18    19   ar
    45    18    48    1
    46    19    22   ar
    47    19    49    1
    48    20    22   ar
    49    20    50    1
    50    21    23    1
    51    21    51    1
    52    21    52    1
    53    22    53    1
    54    23    24   ar
    55    24    25   ar
    56    25    26   ar
    57    25    54    1
    58    26    55    1
    59    27    56    1
    60    27    57    1
    61    27    58    1
@<TRIPOS>MOLECULE
66553195
 58 61 0 0 0
SMALL
GASTEIGER

@<TRIPOS>ATOM
      1 S          -4.7388    1.3227    1.6704 S.2     1  UNL1       -0.0926
      2 O           3.9947    1.8338   -0.6210 O.3     1  UNL1       -0.3733
      3 O          -4.1930    4.6339   -0.2475 O.3     1  UNL1       -0.4941
      4 N           0.6441   -1.5069   -1.1894 N.ar    1  UNL1       -0.2593
      5 N          -2.3798    0.6689   -0.0216 N.4     1  UNL1        0.2308
      6 C           3.9072    1.0510    0.5757 C.3     1  UNL1        0.0704
      7 C           1.4313    0.5057   -0.0051 C.3     1  UNL1        0.0224
      8 C           2.4527    0.9788    1.0713 C.3     1  UNL1       -0.0124
      9 C           4.8008    1.7382    1.6213 C.3     1  UNL1       -0.0237
     10 C           4.6231   -0.2974    0.4268 C.3     1  UNL1       -0.0237
     11 C           1.6850    1.3950   -1.2530 C.3     1  UNL1       -0.0181
     12 C           6.2268    1.3540    1.2306 C.3     1  UNL1       -0.0504
     13 C           6.1087    0.0588    0.4313 C.3     1  UNL1       -0.0504
     14 C          -0.0007    0.8133    0.4991 C.3     1  UNL1       -0.0013
     15 C           3.1485    1.4020   -1.6812 C.3     1  UNL1        0.0492
     16 C           1.4898   -1.0143   -0.2569 C.ar    1  UNL1        0.0478
     17 C          -1.0428    0.3538   -0.5107 C.3     1  UNL1       -0.0325
     18 C           2.3845   -1.7877    0.4649 C.ar    1  UNL1       -0.0398
     19 C           2.4134   -3.1548    0.2132 C.ar    1  UNL1       -0.0586
     20 C           0.7007   -2.8401   -1.4068 C.ar    1  UNL1        0.0279
     21 C          -2.5388    2.1040    0.1669 C.3     1  UNL1        0.0021
     22 C           1.5587   -3.6989   -0.7390 C.ar    1  UNL1       -0.0436
     23 C          -3.9076    2.4526    0.6884 C.ar    1  UNL1        0.0756
     24 C          -4.6400    3.6025    0.4901 C.ar    1  UNL1        0.1353
     25 C          -5.9001    3.5550    1.1532 C.ar    1  UNL1       -0.0124
     26 C          -6.0829    2.3710    1.8331 C.ar    1  UNL1       -0.0203
     27 C          -5.1671    5.4322   -0.9345 C.3     1  UNL1        0.0788
     28 H          -2.5293    0.1964    0.8698 H       1  UNL1        0.2017
     29 H          -3.0620    0.3531   -0.7110 H       1  UNL1        0.2017
     30 H           2.1628    1.9541    1.4025 H       1  UNL1        0.0302
     31 H           2.4318    0.2502    1.8546 H       1  UNL1        0.0302
     32 H           4.5711    1.3839    2.6045 H       1  UNL1        0.0293
     33 H           4.6591    2.7986    1.6388 H       1  UNL1        0.0293
     34 H           4.3502   -0.7715   -0.4928 H       1  UNL1        0.0293
     35 H           4.3659   -0.9840    1.2061 H       1  UNL1        0.0293
     36 H           1.3901    2.3979   -1.0246 H       1  UNL1        0.0296
     37 H           1.1131    0.9894   -2.0613 H       1  UNL1        0.0296
     38 H           6.8229    1.1982    2.1054 H       1  UNL1        0.0266
     39 H           6.6984    2.1260    0.6592 H       1  UNL1        0.0266
     40 H           6.4591    0.2056   -0.5690 H       1  UNL1        0.0266
     41 H           6.6986   -0.7233    0.8618 H       1  UNL1        0.0266
     42 H          -0.1000    1.8680    0.6496 H       1  UNL1        0.0326
     43 H          -0.1599    0.2879    1.4175 H       1  UNL1        0.0326
     44 H           3.4315    0.4119   -1.9720 H       1  UNL1        0.0560
     45 H           3.2580    2.0824   -2.4997 H       1  UNL1        0.0560
     46 H          -0.8788    0.8537   -1.4425 H       1  UNL1        0.0814
     47 H          -0.9581   -0.7040   -0.6482 H       1  UNL1        0.0814
     48 H           3.0098   -1.3625    1.1673 H       1  UNL1        0.0636
     49 H           3.0665   -3.7633    0.7311 H       1  UNL1        0.0619
     50 H           0.0657   -3.2429   -2.1136 H       1  UNL1        0.0829
     51 H          -2.3909    2.5950   -0.7723 H       1  UNL1        0.0873
     52 H          -1.8169    2.4261    0.8880 H       1  UNL1        0.0873
     53 H           1.5633   -4.7108   -0.9420 H       1  UNL1        0.0633
     54 H          -6.5945    4.3181    1.1273 H       1  UNL1        0.0659
     55 H          -6.9300    2.1426    2.3765 H       1  UNL1        0.0694
     56 H          -4.6720    6.2103   -1.4771 H       1  UNL1        0.0660
     57 H          -5.8391    5.8652   -0.2233 H       1  UNL1        0.0660
     58 H          -5.7166    4.8165   -1.6156 H       1  UNL1        0.0660
@<TRIPOS>UNITY_ATOM_ATTR
5 1
charge 1
@<TRIPOS>BOND
     1     1    23   ar
     2     1    26   ar
     3     2     6    1
     4     2    15    1
     5     3    24    1
     6     3    27    1
     7     4    16   ar
     8     4    20   ar
     9     5    17    1
    10     5    21    1
    11     5    28    1
    12     5    29    1
    13     6     8    1
    14     6     9    1
    15     6    10    1
    16     7     8    1
    17     7    11    1
    18     7    14    1
    19     7    16    1
    20     8    30    1
    21     8    31    1
    22     9    12    1
    23     9    32    1
    24     9    33    1
    25    10    13    1
    26    10    34    1
    27    10    35    1
    28    11    15    1
    29    11    36    1
    30    11    37    1
    31    12    13    1
    32    12    38    1
    33    12    39    1
    34    13    40    1
    35    13    41    1
    36    14    17    1
    37    14    42    1
    38    14    43    1
    39    15    44    1
    40    15    45    1
    41    16    18   ar
    42    17    46    1
    43    17    47    1
    44    18    19   ar
    45    18    48    1
    46    19    22   ar
    47    19    49    1
    48    20    22   ar
    49    20    50    1
    50    21    23    1
    51    21    51    1
    52    21    52    1
    53    22    53    1
    54    23    24   ar
    55    24    25   ar
    56    25    26   ar
    57    25    54    1
    58    26    55    1
    59    27    56    1
    60    27    57    1
    61    27    58    1
@<TRIPOS>MOLECULE
66553195
 58 61 0 0 0
SMALL
GASTEIGER

@<TRIPOS>ATOM
      1 S          -1.4957   -2.1721   -0.1446 S.2     1  UNL1       -0.0926
      2 O           3.9947    1.8338   -0.6210 O.3     1  UNL1       -0.3733
      3 O          -4.0559   -2.3263    2.7470 O.3     1  UNL1       -0.4941
      4 N           2.3917   -1.7141    0.4672 N.ar    1  UNL1       -0.2593
      5 N          -1.6350    0.3940    2.2612 N.4     1  UNL1        0.2308
      6 C           3.9072    1.0510    0.5757 C.3     1  UNL1        0.0704
      7 C           1.4313    0.5057   -0.0051 C.3     1  UNL1        0.0224
      8 C           2.4527    0.9788    1.0713 C.3     1  UNL1       -0.0124
      9 C           4.8008    1.7382    1.6213 C.3     1  UNL1       -0.0237
     10 C           4.6231   -0.2974    0.4268 C.3     1  UNL1       -0.0237
     11 C           1.6850    1.3950   -1.2530 C.3     1  UNL1       -0.0181
     12 C           6.2268    1.3540    1.2306 C.3     1  UNL1       -0.0504
     13 C           6.1087    0.0588    0.4313 C.3     1  UNL1       -0.0504
     14 C          -0.0007    0.8133    0.4991 C.3     1  UNL1       -0.0013
     15 C           3.1485    1.4020   -1.6812 C.3     1  UNL1        0.0492
     16 C           1.4898   -1.0143   -0.2569 C.ar    1  UNL1        0.0478
     17 C          -0.2774    0.1027    1.8165 C.3     1  UNL1       -0.0325
     18 C           0.6363   -1.5809   -1.1898 C.ar    1  UNL1       -0.0398
     19 C           0.7132   -2.9543   -1.3924 C.ar    1  UNL1       -0.0586
     20 C           2.4377   -3.0466    0.2430 C.ar    1  UNL1        0.0279
     21 C          -2.6118   -0.0704    1.2863 C.3     1  UNL1        0.0021
     22 C           1.6284   -3.7083   -0.6662 C.ar    1  UNL1       -0.0436
     23 C          -2.5291   -1.5589    1.0752 C.ar    1  UNL1        0.0756
     24 C          -3.1903   -2.5642    1.7461 C.ar    1  UNL1        0.1353
     25 C          -2.8438   -3.8548    1.2520 C.ar    1  UNL1       -0.0124
     26 C          -1.9310   -3.7870    0.2225 C.ar    1  UNL1       -0.0203
     27 C          -3.8424   -1.1549    3.5471 C.3     1  UNL1        0.0788
     28 H          -1.7377    1.4015    2.3829 H       1  UNL1        0.2017
     29 H          -1.7999   -0.0900    3.1438 H       1  UNL1        0.2017
     30 H           2.1628    1.9541    1.4025 H       1  UNL1        0.0302
     31 H           2.4318    0.2502    1.8546 H       1  UNL1        0.0302
     32 H           4.5711    1.3839    2.6045 H       1  UNL1        0.0293
     33 H           4.6591    2.7986    1.6388 H       1  UNL1        0.0293
     34 H           4.3502   -0.7715   -0.4928 H       1  UNL1        0.0293
     35 H           4.3659   -0.9840    1.2061 H       1  UNL1        0.0293
     36 H           1.3901    2.3979   -1.0246 H       1  UNL1        0.0296
     37 H           1.1131    0.9894   -2.0613 H       1  UNL1        0.0296
     38 H           6.8229    1.1982    2.1054 H       1  UNL1        0.0266
     39 H           6.6984    2.1260    0.6592 H       1  UNL1        0.0266
     40 H           6.4591    0.2056   -0.5690 H       1  UNL1        0.0266
     41 H           6.6986   -0.7233    0.8618 H       1  UNL1        0.0266
     42 H          -0.7081    0.4828   -0.2325 H       1  UNL1        0.0326
     43 H          -0.0890    1.8682    0.6548 H       1  UNL1        0.0326
     44 H           3.4315    0.4119   -1.9720 H       1  UNL1        0.0560
     45 H           3.2580    2.0824   -2.4997 H       1  UNL1        0.0560
     46 H          -0.1674   -0.9529    1.6803 H       1  UNL1        0.0814
     47 H           0.4168    0.4462    2.5548 H       1  UNL1        0.0814
     48 H          -0.0353   -1.0018   -1.7176 H       1  UNL1        0.0636
     49 H           0.0936   -3.4122   -2.0789 H       1  UNL1        0.0619
     50 H           3.1175   -3.6052    0.7823 H       1  UNL1        0.0829
     51 H          -2.4309    0.4220    0.3537 H       1  UNL1        0.0873
     52 H          -3.5881    0.1582    1.6598 H       1  UNL1        0.0873
     53 H           1.7024   -4.7289   -0.8004 H       1  UNL1        0.0633
     54 H          -3.2313   -4.7369    1.6219 H       1  UNL1        0.0659
     55 H          -1.5540   -4.6120   -0.2695 H       1  UNL1        0.0694
     56 H          -4.6010   -1.0935    4.2992 H       1  UNL1        0.0660
     57 H          -3.8856   -0.2853    2.9250 H       1  UNL1        0.0660
     58 H          -2.8813   -1.2121    4.0138 H       1  UNL1        0.0660
@<TRIPOS>UNITY_ATOM_ATTR
5 1
charge 1
@<TRIPOS>BOND
     1     1    23   ar
     2     1    26   ar
     3     2     6    1
     4     2    15    1
     5     3    24    1
     6     3    27    1
     7     4    16   ar
     8     4    20   ar
     9     5    17    1
    10     5    21    1
    11     5    28    1
    12     5    29    1
    13     6     8    1
    14     6     9    1
    15     6    10    1
    16     7     8    1
    17     7    11    1
    18     7    14    1
    19     7    16    1
    20     8    30    1
    21     8    31    1
    22     9    12    1
    23     9    32    1
    24     9    33    1
    25    10    13    1
    26    10    34    1
    27    10    35    1
    28    11    15    1
    29    11    36    1
    30    11    37    1
    31    12    13    1
    32    12    38    1
    33    12    39    1
    34    13    40    1
    35    13    41    1
    36    14    17    1
    37    14    42    1
    38    14    43    1
    39    15    44    1
    40    15    45    1
    41    16    18   ar
    42    17    46    1
    43    17    47    1
    44    18    19   ar
    45    18    48    1
    46    19    22   ar
    47    19    49    1
    48    20    22   ar
    49    20    50    1
    50    21    23    1
    51    21    51    1
    52    21    52    1
    53    22    53    1
    54    23    24   ar
    55    24    25   ar
    56    25    26   ar
    57    25    54    1
    58    26    55    1
    59    27    56    1
    60    27    57    1
    61    27    58    1
@<TRIPOS>MOLECULE
66553195
 58 61 0 0 0
SMALL
GASTEIGER

@<TRIPOS>ATOM
      1 S          -0.8372    3.2798   -1.5918 S.2     1  UNL1       -0.0926
      2 O           3.9947    1.8338   -0.6210 O.3     1  UNL1       -0.3733
      3 O          -4.6555    2.7325   -1.8394 O.3     1  UNL1       -0.4941
      4 N           2.3355   -1.4362   -1.2235 N.ar    1  UNL1       -0.2593
      5 N          -1.5373    2.5691    1.2118 N.4     1  UNL1        0.2308
      6 C           3.9072    1.0510    0.5757 C.3     1  UNL1        0.0704
      7 C           1.4313    0.5057   -0.0051 C.3     1  UNL1        0.0224
      8 C           2.4527    0.9788    1.0713 C.3     1  UNL1       -0.0124
      9 C           4.8008    1.7382    1.6213 C.3     1  UNL1       -0.0237
     10 C           4.6231   -0.2974    0.4268 C.3     1  UNL1       -0.0237
     11 C           1.6850    1.3950   -1.2530 C.3     1  UNL1       -0.0181
     12 C           6.2268    1.3540    1.2306 C.3     1  UNL1       -0.0504
     13 C           6.1087    0.0588    0.4313 C.3     1  UNL1       -0.0504
     14 C          -0.0007    0.8133    0.4991 C.3     1  UNL1       -0.0013
     15 C           3.1485    1.4020   -1.6812 C.3     1  UNL1        0.0492
     16 C           1.4898   -1.0143   -0.2569 C.ar    1  UNL1        0.0478
     17 C          -0.1891    2.3072    0.7222 C.3     1  UNL1       -0.0325
     18 C           0.6938   -1.8586    0.5002 C.ar    1  UNL1       -0.0398
     19 C           0.7710   -3.2240    0.2494 C.ar    1  UNL1       -0.0586
     20 C           2.3834   -2.7700   -1.4391 C.ar    1  UNL1        0.0279
     21 C          -2.5353    2.0995    0.2612 C.3     1  UNL1        0.0021
     22 C           1.6295   -3.6966   -0.7370 C.ar    1  UNL1       -0.0436
     23 C          -2.3886    2.7659   -1.0809 C.ar    1  UNL1        0.0756
     24 C          -3.3597    3.0438   -2.0177 C.ar    1  UNL1        0.1353
     25 C          -2.8228    3.6871   -3.1700 C.ar    1  UNL1       -0.0124
     26 C          -1.4619    3.8763   -3.0702 C.ar    1  UNL1       -0.0203
     27 C          -5.6343    3.5772   -2.4609 C.3     1  UNL1        0.0788
     28 H          -1.6536    3.5731    1.3494 H       1  UNL1        0.2017
     29 H          -1.6666    2.0715    2.0928 H       1  UNL1        0.2017
     30 H           2.1628    1.9541    1.4025 H       1  UNL1        0.0302
     31 H           2.4318    0.2502    1.8546 H       1  UNL1        0.0302
     32 H           4.5711    1.3839    2.6045 H       1  UNL1        0.0293
     33 H           4.6591    2.7986    1.6388 H       1  UNL1        0.0293
     34 H           4.3502   -0.7715   -0.4928 H       1  UNL1        0.0293
     35 H           4.3659   -0.9840    1.2061 H       1  UNL1        0.0293
     36 H           1.3901    2.3979   -1.0246 H       1  UNL1        0.0296
     37 H           1.1131    0.9894   -2.0613 H       1  UNL1        0.0296
     38 H           6.8229    1.1982    2.1054 H       1  UNL1        0.0266
     39 H           6.6984    2.1260    0.6592 H       1  UNL1        0.0266
     40 H           6.4591    0.2056   -0.5690 H       1  UNL1        0.0266
     41 H           6.6986   -0.7233    0.8618 H       1  UNL1        0.0266
     42 H          -0.1653    0.2978    1.4221 H       1  UNL1        0.0326
     43 H          -0.7011    0.4874   -0.2413 H       1  UNL1        0.0326
     44 H           3.4315    0.4119   -1.9720 H       1  UNL1        0.0560
     45 H           3.2580    2.0824   -2.4997 H       1  UNL1        0.0560
     46 H           0.5232    2.6510    1.4429 H       1  UNL1        0.0814
     47 H          -0.0440    2.8230   -0.2040 H       1  UNL1        0.0814
     48 H           0.0635   -1.4858    1.2275 H       1  UNL1        0.0636
     49 H           0.1934   -3.8841    0.7931 H       1  UNL1        0.0619
     50 H           3.0208   -3.1195   -2.1716 H       1  UNL1        0.0829
     51 H          -3.5097    2.3126    0.6488 H       1  UNL1        0.0873
     52 H          -2.3960    1.0472    0.1264 H       1  UNL1        0.0873
     53 H           1.7029   -4.7058   -0.9398 H       1  UNL1        0.0633
     54 H          -3.3871    3.9772   -3.9839 H       1  UNL1        0.0659
     55 H          -0.8868    4.3247   -3.8003 H       1  UNL1        0.0694
     56 H          -6.6147    3.2126   -2.2356 H       1  UNL1        0.0660
     57 H          -5.4872    3.5737   -3.5208 H       1  UNL1        0.0660
     58 H          -5.5311    4.5755   -2.0899 H       1  UNL1        0.0660
@<TRIPOS>UNITY_ATOM_ATTR
5 1
charge 1
@<TRIPOS>BOND
     1     1    23   ar
     2     1    26   ar
     3     2     6    1
     4     2    15    1
     5     3    24    1
     6     3    27    1
     7     4    16   ar
     8     4    20   ar
     9     5    17    1
    10     5    21    1
    11     5    28    1
    12     5    29    1
    13     6     8    1
    14     6     9    1
    15     6    10    1
    16     7     8    1
    17     7    11    1
    18     7    14    1
    19     7    16    1
    20     8    30    1
    21     8    31    1
    22     9    12    1
    23     9    32    1
    24     9    33    1
    25    10    13    1
    26    10    34    1
    27    10    35    1
    28    11    15    1
    29    11    36    1
    30    11    37    1
    31    12    13    1
    32    12    38    1
    33    12    39    1
    34    13    40    1
    35    13    41    1
    36    14    17    1
    37    14    42    1
    38    14    43    1
    39    15    44    1
    40    15    45    1
    41    16    18   ar
    42    17    46    1
    43    17    47    1
    44    18    19   ar
    45    18    48    1
    46    19    22   ar
    47    19    49    1
    48    20    22   ar
    49    20    50    1
    50    21    23    1
    51    21    51    1
    52    21    52    1
    53    22    53    1
    54    23    24   ar
    55    24    25   ar
    56    25    26   ar
    57    25    54    1
    58    26    55    1
    59    27    56    1
    60    27    57    1
    61    27    58    1
@<TRIPOS>MOLECULE
66553195
 58 61 0 0 0
SMALL
GASTEIGER

@<TRIPOS>ATOM
      1 S           0.7200    5.1948    1.8467 S.2     1  UNL1       -0.0926
      2 O           3.9947    1.8338   -0.6210 O.3     1  UNL1       -0.3733
      3 O          -1.9781    4.2515    4.4488 O.3     1  UNL1       -0.4941
      4 N           0.3359   -1.6114   -0.6301 N.ar    1  UNL1       -0.2593
      5 N          -1.5373    2.5691    1.2118 N.4     1  UNL1        0.2308
      6 C           3.9072    1.0510    0.5757 C.3     1  UNL1        0.0704
      7 C           1.4313    0.5057   -0.0051 C.3     1  UNL1        0.0224
      8 C           2.4527    0.9788    1.0713 C.3     1  UNL1       -0.0124
      9 C           4.8008    1.7382    1.6213 C.3     1  UNL1       -0.0237
     10 C           4.6231   -0.2974    0.4268 C.3     1  UNL1       -0.0237
     11 C           1.6850    1.3950   -1.2530 C.3     1  UNL1       -0.0181
     12 C           6.2268    1.3540    1.2306 C.3     1  UNL1       -0.0504
     13 C           6.1087    0.0588    0.4313 C.3     1  UNL1       -0.0504
     14 C          -0.0007    0.8133    0.4991 C.3     1  UNL1       -0.0013
     15 C           3.1485    1.4020   -1.6812 C.3     1  UNL1        0.0492
     16 C           1.4898   -1.0143   -0.2569 C.ar    1  UNL1        0.0478
     17 C          -0.1891    2.3072    0.7222 C.3     1  UNL1       -0.0325
     18 C           2.6922   -1.6832   -0.0944 C.ar    1  UNL1       -0.0398
     19 C           2.7117   -3.0533   -0.3305 C.ar    1  UNL1       -0.0586
     20 C           0.3934   -2.9441   -0.8507 C.ar    1  UNL1        0.0279
     21 C          -1.7472    3.9952    1.4173 C.3     1  UNL1        0.0021
     22 C           1.5446   -3.7033   -0.7163 C.ar    1  UNL1       -0.0436
     23 C          -0.7708    4.5684    2.4098 C.ar    1  UNL1        0.0756
     24 C          -0.8929    4.6756    3.7779 C.ar    1  UNL1        0.1353
     25 C           0.2527    5.2800    4.3713 C.ar    1  UNL1       -0.0124
     26 C           1.2066    5.6119    3.4345 C.ar    1  UNL1       -0.0203
     27 C          -2.7099    3.1464    3.8998 C.3     1  UNL1        0.0788
     28 H          -1.6719    2.0807    2.0971 H       1  UNL1        0.2017
     29 H          -2.2066    2.2379    0.5170 H       1  UNL1        0.2017
     30 H           2.1628    1.9541    1.4025 H       1  UNL1        0.0302
     31 H           2.4318    0.2502    1.8546 H       1  UNL1        0.0302
     32 H           4.5711    1.3839    2.6045 H       1  UNL1        0.0293
     33 H           4.6591    2.7986    1.6388 H       1  UNL1        0.0293
     34 H           4.3502   -0.7715   -0.4928 H       1  UNL1        0.0293
     35 H           4.3659   -0.9840    1.2061 H       1  UNL1        0.0293
     36 H           1.3901    2.3979   -1.0246 H       1  UNL1        0.0296
     37 H           1.1131    0.9894   -2.0613 H       1  UNL1        0.0296
     38 H           6.8229    1.1982    2.1054 H       1  UNL1        0.0266
     39 H           6.6984    2.1260    0.6592 H       1  UNL1        0.0266
     40 H           6.4591    0.2056   -0.5690 H       1  UNL1        0.0266
     41 H           6.6986   -0.7233    0.8618 H       1  UNL1        0.0266
     42 H          -0.1653    0.2978    1.4221 H       1  UNL1        0.0326
     43 H          -0.7011    0.4874   -0.2413 H       1  UNL1        0.0326
     44 H           3.4315    0.4119   -1.9720 H       1  UNL1        0.0560
     45 H           3.2580    2.0824   -2.4997 H       1  UNL1        0.0560
     46 H           0.5232    2.6510    1.4429 H       1  UNL1        0.0814
     47 H          -0.0440    2.8230   -0.2040 H       1  UNL1        0.0814
     48 H           3.5465   -1.1804    0.1929 H       1  UNL1        0.0636
     49 H           3.5888   -3.5857   -0.2197 H       1  UNL1        0.0619
     50 H          -0.4734   -3.4255   -1.1367 H       1  UNL1        0.0829
     51 H          -2.7415    4.1498    1.7813 H       1  UNL1        0.0873
     52 H          -1.5983    4.4910    0.4809 H       1  UNL1        0.0873
     53 H           1.5362   -4.7193   -0.8968 H       1  UNL1        0.0633
     54 H           0.3558    5.4494    5.3842 H       1  UNL1        0.0659
     55 H           2.1082    6.0591    3.6627 H       1  UNL1        0.0694
     56 H          -3.5416    2.9194    4.5336 H       1  UNL1        0.0660
     57 H          -2.0689    2.2923    3.8327 H       1  UNL1        0.0660
     58 H          -3.0651    3.4034    2.9238 H       1  UNL1        0.0660
@<TRIPOS>UNITY_ATOM_ATTR
5 1
charge 1
@<TRIPOS>BOND
     1     1    23   ar
     2     1    26   ar
     3     2     6    1
     4     2    15    1
     5     3    24    1
     6     3    27    1
     7     4    16   ar
     8     4    20   ar
     9     5    17    1
    10     5    21    1
    11     5    28    1
    12     5    29    1
    13     6     8    1
    14     6     9    1
    15     6    10    1
    16     7     8    1
    17     7    11    1
    18     7    14    1
    19     7    16    1
    20     8    30    1
    21     8    31    1
    22     9    12    1
    23     9    32    1
    24     9    33    1
    25    10    13    1
    26    10    34    1
    27    10    35    1
    28    11    15    1
    29    11    36    1
    30    11    37    1
    31    12    13    1
    32    12    38    1
    33    12    39    1
    34    13    40    1
    35    13    41    1
    36    14    17    1
    37    14    42    1
    38    14    43    1
    39    15    44    1
    40    15    45    1
    41    16    18   ar
    42    17    46    1
    43    17    47    1
    44    18    19   ar
    45    18    48    1
    46    19    22   ar
    47    19    49    1
    48    20    22   ar
    49    20    50    1
    50    21    23    1
    51    21    51    1
    52    21    52    1
    53    22    53    1
    54    23    24   ar
    55    24    25   ar
    56    25    26   ar
    57    25    54    1
    58    26    55    1
    59    27    56    1
    60    27    57    1
    61    27    58    1
@<TRIPOS>MOLECULE
66553195
 58 61 0 0 0
SMALL
GASTEIGER

@<TRIPOS>ATOM
      1 S           0.6478    2.9883    2.9330 S.2     1  UNL1       -0.0926
      2 O           3.9947    1.8338   -0.6210 O.3     1  UNL1       -0.3733
      3 O          -2.1445    2.1249    5.4623 O.3     1  UNL1       -0.4941
      4 N           0.3359   -1.6114   -0.6301 N.ar    1  UNL1       -0.2593
      5 N          -1.6350    0.3940    2.2612 N.4     1  UNL1        0.2308
      6 C           3.9072    1.0510    0.5757 C.3     1  UNL1        0.0704
      7 C           1.4313    0.5057   -0.0051 C.3     1  UNL1        0.0224
      8 C           2.4527    0.9788    1.0713 C.3     1  UNL1       -0.0124
      9 C           4.8008    1.7382    1.6213 C.3     1  UNL1       -0.0237
     10 C           4.6231   -0.2974    0.4268 C.3     1  UNL1       -0.0237
     11 C           1.6850    1.3950   -1.2530 C.3     1  UNL1       -0.0181
     12 C           6.2268    1.3540    1.2306 C.3     1  UNL1       -0.0504
     13 C           6.1087    0.0588    0.4313 C.3     1  UNL1       -0.0504
     14 C          -0.0007    0.8133    0.4991 C.3     1  UNL1       -0.0013
     15 C           3.1485    1.4020   -1.6812 C.3     1  UNL1        0.0492
     16 C           1.4898   -1.0143   -0.2569 C.ar    1  UNL1        0.0478
     17 C          -0.2774    0.1027    1.8165 C.3     1  UNL1       -0.0325
     18 C           2.6922   -1.6832   -0.0944 C.ar    1  UNL1       -0.0398
     19 C           2.7117   -3.0533   -0.3305 C.ar    1  UNL1       -0.0586
     20 C           0.3934   -2.9441   -0.8507 C.ar    1  UNL1        0.0279
     21 C          -1.8260    1.8261    2.4428 C.3     1  UNL1        0.0021
     22 C           1.5446   -3.7033   -0.7163 C.ar    1  UNL1       -0.0436
     23 C          -0.8702    2.3949    3.4577 C.ar    1  UNL1        0.0756
     24 C          -1.0320    2.5217    4.8199 C.ar    1  UNL1        0.1353
     25 C           0.1054    3.1138    5.4408 C.ar    1  UNL1       -0.0124
     26 C           1.0931    3.4172    4.5297 C.ar    1  UNL1       -0.0203
     27 C          -2.8786    1.0257    4.9047 C.3     1  UNL1        0.0788
     28 H          -1.8051   -0.0806    3.1479 H       1  UNL1        0.2017
     29 H          -2.2885    0.0656    1.5503 H       1  UNL1        0.2017
     30 H           2.1628    1.9541    1.4025 H       1  UNL1        0.0302
     31 H           2.4318    0.2502    1.8546 H       1  UNL1        0.0302
     32 H           4.5711    1.3839    2.6045 H       1  UNL1        0.0293
     33 H           4.6591    2.7986    1.6388 H       1  UNL1        0.0293
     34 H           4.3502   -0.7715   -0.4928 H       1  UNL1        0.0293
     35 H           4.3659   -0.9840    1.2061 H       1  UNL1        0.0293
     36 H           1.3901    2.3979   -1.0246 H       1  UNL1        0.0296
     37 H           1.1131    0.9894   -2.0613 H       1  UNL1        0.0296
     38 H           6.8229    1.1982    2.1054 H       1  UNL1        0.0266
     39 H           6.6984    2.1260    0.6592 H       1  UNL1        0.0266
     40 H           6.4591    0.2056   -0.5690 H       1  UNL1        0.0266
     41 H           6.6986   -0.7233    0.8618 H       1  UNL1        0.0266
     42 H          -0.7081    0.4828   -0.2325 H       1  UNL1        0.0326
     43 H          -0.0890    1.8682    0.6548 H       1  UNL1        0.0326
     44 H           3.4315    0.4119   -1.9720 H       1  UNL1        0.0560
     45 H           3.2580    2.0824   -2.4997 H       1  UNL1        0.0560
     46 H          -0.1674   -0.9529    1.6803 H       1  UNL1        0.0814
     47 H           0.4168    0.4462    2.5548 H       1  UNL1        0.0814
     48 H           3.5465   -1.1804    0.1929 H       1  UNL1        0.0636
     49 H           3.5888   -3.5857   -0.2197 H       1  UNL1        0.0619
     50 H          -0.4734   -3.4255   -1.1367 H       1  UNL1        0.0829
     51 H          -2.8280    2.0024    2.7742 H       1  UNL1        0.0873
     52 H          -1.6398    2.3072    1.5053 H       1  UNL1        0.0873
     53 H           1.5362   -4.7193   -0.8968 H       1  UNL1        0.0633
     54 H           0.1805    3.2943    6.4542 H       1  UNL1        0.0659
     55 H           1.9951    3.8516    4.7800 H       1  UNL1        0.0694
     56 H          -3.7331    0.8211    5.5155 H       1  UNL1        0.0660
     57 H          -2.2510    0.1598    4.8677 H       1  UNL1        0.0660
     58 H          -3.1993    1.2763    3.9152 H       1  UNL1        0.0660
@<TRIPOS>UNITY_ATOM_ATTR
5 1
charge 1
@<TRIPOS>BOND
     1     1    23   ar
     2     1    26   ar
     3     2     6    1
     4     2    15    1
     5     3    24    1
     6     3    27    1
     7     4    16   ar
     8     4    20   ar
     9     5    17    1
    10     5    21    1
    11     5    28    1
    12     5    29    1
    13     6     8    1
    14     6     9    1
    15     6    10    1
    16     7     8    1
    17     7    11    1
    18     7    14    1
    19     7    16    1
    20     8    30    1
    21     8    31    1
    22     9    12    1
    23     9    32    1
    24     9    33    1
    25    10    13    1
    26    10    34    1
    27    10    35    1
    28    11    15    1
    29    11    36    1
    30    11    37    1
    31    12    13    1
    32    12    38    1
    33    12    39    1
    34    13    40    1
    35    13    41    1
    36    14    17    1
    37    14    42    1
    38    14    43    1
    39    15    44    1
    40    15    45    1
    41    16    18   ar
    42    17    46    1
    43    17    47    1
    44    18    19   ar
    45    18    48    1
    46    19    22   ar
    47    19    49    1
    48    20    22   ar
    49    20    50    1
    50    21    23    1
    51    21    51    1
    52    21    52    1
    53    22    53    1
    54    23    24   ar
    55    24    25   ar
    56    25    26   ar
    57    25    54    1
    58    26    55    1
    59    27    56    1
    60    27    57    1
    61    27    58    1
@<TRIPOS>MOLECULE
66553195
 58 61 0 0 0
SMALL
GASTEIGER

@<TRIPOS>ATOM
      1 S          -3.6904   -1.1706    0.4127 S.2     1  UNL1       -0.0926
      2 O           3.9947    1.8338   -0.6210 O.3     1  UNL1       -0.3733
      3 O          -4.3869   -0.9874   -3.3849 O.3     1  UNL1       -0.4941
      4 N           2.3355   -1.4362   -1.2235 N.ar    1  UNL1       -0.2593
      5 N          -0.9367   -1.0864   -0.7122 N.4     1  UNL1        0.2308
      6 C           3.9072    1.0510    0.5757 C.3     1  UNL1        0.0704
      7 C           1.4313    0.5057   -0.0051 C.3     1  UNL1        0.0224
      8 C           2.4527    0.9788    1.0713 C.3     1  UNL1       -0.0124
      9 C           4.8008    1.7382    1.6213 C.3     1  UNL1       -0.0237
     10 C           4.6231   -0.2974    0.4268 C.3     1  UNL1       -0.0237
     11 C           1.6850    1.3950   -1.2530 C.3     1  UNL1       -0.0181
     12 C           6.2268    1.3540    1.2306 C.3     1  UNL1       -0.0504
     13 C           6.1087    0.0588    0.4313 C.3     1  UNL1       -0.0504
     14 C          -0.0007    0.8133    0.4991 C.3     1  UNL1       -0.0013
     15 C           3.1485    1.4020   -1.6812 C.3     1  UNL1        0.0492
     16 C           1.4898   -1.0143   -0.2569 C.ar    1  UNL1        0.0478
     17 C          -1.0428    0.3538   -0.5107 C.3     1  UNL1       -0.0325
     18 C           0.6938   -1.8586    0.5002 C.ar    1  UNL1       -0.0398
     19 C           0.7710   -3.2240    0.2494 C.ar    1  UNL1       -0.0586
     20 C           2.3834   -2.7700   -1.4391 C.ar    1  UNL1        0.0279
     21 C          -1.9140   -1.5477   -1.6880 C.3     1  UNL1        0.0021
     22 C           1.6295   -3.6966   -0.7370 C.ar    1  UNL1       -0.0436
     23 C          -3.3238   -1.2393   -1.2585 C.ar    1  UNL1        0.0756
     24 C          -4.4295   -0.9886   -2.0411 C.ar    1  UNL1        0.1353
     25 C          -5.5929   -0.7369   -1.2581 C.ar    1  UNL1       -0.0124
     26 C          -5.3322   -0.8047    0.0929 C.ar    1  UNL1       -0.0203
     27 C          -5.5752   -1.3754   -4.0886 C.3     1  UNL1        0.0788
     28 H          -1.1015   -1.5609    0.1756 H       1  UNL1        0.2017
     29 H          -0.0021   -1.2987   -1.0614 H       1  UNL1        0.2017
     30 H           2.1628    1.9541    1.4025 H       1  UNL1        0.0302
     31 H           2.4318    0.2502    1.8546 H       1  UNL1        0.0302
     32 H           4.5711    1.3839    2.6045 H       1  UNL1        0.0293
     33 H           4.6591    2.7986    1.6388 H       1  UNL1        0.0293
     34 H           4.3502   -0.7715   -0.4928 H       1  UNL1        0.0293
     35 H           4.3659   -0.9840    1.2061 H       1  UNL1        0.0293
     36 H           1.3901    2.3979   -1.0246 H       1  UNL1        0.0296
     37 H           1.1131    0.9894   -2.0613 H       1  UNL1        0.0296
     38 H           6.8229    1.1982    2.1054 H       1  UNL1        0.0266
     39 H           6.6984    2.1260    0.6592 H       1  UNL1        0.0266
     40 H           6.4591    0.2056   -0.5690 H       1  UNL1        0.0266
     41 H           6.6986   -0.7233    0.8618 H       1  UNL1        0.0266
     42 H          -0.1000    1.8680    0.6496 H       1  UNL1        0.0326
     43 H          -0.1599    0.2879    1.4175 H       1  UNL1        0.0326
     44 H           3.4315    0.4119   -1.9720 H       1  UNL1        0.0560
     45 H           3.2580    2.0824   -2.4997 H       1  UNL1        0.0560
     46 H          -2.0202    0.5898   -0.1445 H       1  UNL1        0.0814
     47 H          -0.8755    0.8533   -1.4421 H       1  UNL1        0.0814
     48 H           0.0635   -1.4858    1.2275 H       1  UNL1        0.0636
     49 H           0.1934   -3.8841    0.7931 H       1  UNL1        0.0619
     50 H           3.0208   -3.1195   -2.1716 H       1  UNL1        0.0829
     51 H          -1.8120   -2.6063   -1.8061 H       1  UNL1        0.0873
     52 H          -1.7287   -1.0375   -2.6101 H       1  UNL1        0.0873
     53 H           1.7029   -4.7058   -0.9398 H       1  UNL1        0.0633
     54 H          -6.5219   -0.5284   -1.6564 H       1  UNL1        0.0659
     55 H          -6.0427   -0.6527    0.8258 H       1  UNL1        0.0694
     56 H          -5.3971   -1.3281   -5.1426 H       1  UNL1        0.0660
     57 H          -6.3745   -0.7119   -3.8318 H       1  UNL1        0.0660
     58 H          -5.8405   -2.3756   -3.8164 H       1  UNL1        0.0660
@<TRIPOS>UNITY_ATOM_ATTR
5 1
charge 1
@<TRIPOS>BOND
     1     1    23   ar
     2     1    26   ar
     3     2     6    1
     4     2    15    1
     5     3    24    1
     6     3    27    1
     7     4    16   ar
     8     4    20   ar
     9     5    17    1
    10     5    21    1
    11     5    28    1
    12     5    29    1
    13     6     8    1
    14     6     9    1
    15     6    10    1
    16     7     8    1
    17     7    11    1
    18     7    14    1
    19     7    16    1
    20     8    30    1
    21     8    31    1
    22     9    12    1
    23     9    32    1
    24     9    33    1
    25    10    13    1
    26    10    34    1
    27    10    35    1
    28    11    15    1
    29    11    36    1
    30    11    37    1
    31    12    13    1
    32    12    38    1
    33    12    39    1
    34    13    40    1
    35    13    41    1
    36    14    17    1
    37    14    42    1
    38    14    43    1
    39    15    44    1
    40    15    45    1
    41    16    18   ar
    42    17    46    1
    43    17    47    1
    44    18    19   ar
    45    18    48    1
    46    19    22   ar
    47    19    49    1
    48    20    22   ar
    49    20    50    1
    50    21    23    1
    51    21    51    1
    52    21    52    1
    53    22    53    1
    54    23    24   ar
    55    24    25   ar
    56    25    26   ar
    57    25    54    1
    58    26    55    1
    59    27    56    1
    60    27    57    1
    61    27    58    1
@<TRIPOS>MOLECULE
66553195
 58 61 0 0 0
SMALL
GASTEIGER

@<TRIPOS>ATOM
      1 S          -3.9544    3.6018    2.6069 S.2     1  UNL1       -0.0926
      2 O           3.9947    1.8338   -0.6210 O.3     1  UNL1       -0.3733
      3 O          -3.5395    0.1102    4.2122 O.3     1  UNL1       -0.4941
      4 N           1.8670   -1.7871    0.7861 N.ar    1  UNL1       -0.2593
      5 N          -1.5373    2.5691    1.2118 N.4     1  UNL1        0.2308
      6 C           3.9072    1.0510    0.5757 C.3     1  UNL1        0.0704
      7 C           1.4313    0.5057   -0.0051 C.3     1  UNL1        0.0224
      8 C           2.4527    0.9788    1.0713 C.3     1  UNL1       -0.0124
      9 C           4.8008    1.7382    1.6213 C.3     1  UNL1       -0.0237
     10 C           4.6231   -0.2974    0.4268 C.3     1  UNL1       -0.0237
     11 C           1.6850    1.3950   -1.2530 C.3     1  UNL1       -0.0181
     12 C           6.2268    1.3540    1.2306 C.3     1  UNL1       -0.0504
     13 C           6.1087    0.0588    0.4313 C.3     1  UNL1       -0.0504
     14 C          -0.0007    0.8133    0.4991 C.3     1  UNL1       -0.0013
     15 C           3.1485    1.4020   -1.6812 C.3     1  UNL1        0.0492
     16 C           1.4898   -1.0143   -0.2569 C.ar    1  UNL1        0.0478
     17 C          -0.1891    2.3072    0.7222 C.3     1  UNL1       -0.0325
     18 C           1.1606   -1.5078   -1.5090 C.ar    1  UNL1       -0.0398
     19 C           1.2221   -2.8832   -1.7031 C.ar    1  UNL1       -0.0586
     20 C           1.9154   -3.1192    0.5598 C.ar    1  UNL1        0.0279
     21 C          -1.7699    1.8924    2.4800 C.3     1  UNL1        0.0021
     22 C           1.6058   -3.7112   -0.6540 C.ar    1  UNL1       -0.0436
     23 C          -3.1629    2.1346    2.9975 C.ar    1  UNL1        0.0756
     24 C          -3.9476    1.3162    3.7801 C.ar    1  UNL1        0.1353
     25 C          -5.2154    1.9017    4.0627 C.ar    1  UNL1       -0.0124
     26 C          -5.3515    3.1451    3.4853 C.ar    1  UNL1       -0.0203
     27 C          -4.5396   -0.8991    4.4100 C.3     1  UNL1        0.0788
     28 H          -2.2130    2.2335    0.5254 H       1  UNL1        0.2017
     29 H          -1.6431    3.5736    1.3541 H       1  UNL1        0.2017
     30 H           2.1628    1.9541    1.4025 H       1  UNL1        0.0302
     31 H           2.4318    0.2502    1.8546 H       1  UNL1        0.0302
     32 H           4.5711    1.3839    2.6045 H       1  UNL1        0.0293
     33 H           4.6591    2.7986    1.6388 H       1  UNL1        0.0293
     34 H           4.3502   -0.7715   -0.4928 H       1  UNL1        0.0293
     35 H           4.3659   -0.9840    1.2061 H       1  UNL1        0.0293
     36 H           1.3901    2.3979   -1.0246 H       1  UNL1        0.0296
     37 H           1.1131    0.9894   -2.0613 H       1  UNL1        0.0296
     38 H           6.8229    1.1982    2.1054 H       1  UNL1        0.0266
     39 H           6.6984    2.1260    0.6592 H       1  UNL1        0.0266
     40 H           6.4591    0.2056   -0.5690 H       1  UNL1        0.0266
     41 H           6.6986   -0.7233    0.8618 H       1  UNL1        0.0266
     42 H          -0.1653    0.2978    1.4221 H       1  UNL1        0.0326
     43 H          -0.7011    0.4874   -0.2413 H       1  UNL1        0.0326
     44 H           3.4315    0.4119   -1.9720 H       1  UNL1        0.0560
     45 H           3.2580    2.0824   -2.4997 H       1  UNL1        0.0560
     46 H           0.5232    2.6510    1.4429 H       1  UNL1        0.0814
     47 H          -0.0440    2.8230   -0.2040 H       1  UNL1        0.0814
     48 H           0.8785   -0.8745   -2.2735 H       1  UNL1        0.0636
     49 H           0.9841   -3.2879   -2.6221 H       1  UNL1        0.0619
     50 H           2.2005   -3.7327    1.3391 H       1  UNL1        0.0829
     51 H          -1.0655    2.2544    3.1997 H       1  UNL1        0.0873
     52 H          -1.6527    0.8407    2.3214 H       1  UNL1        0.0873
     53 H           1.6582   -4.7347   -0.7756 H       1  UNL1        0.0633
     54 H          -5.9460    1.4477    4.6330 H       1  UNL1        0.0659
     55 H          -6.1958    3.7320    3.5720 H       1  UNL1        0.0694
     56 H          -4.0744   -1.7999    4.7523 H       1  UNL1        0.0660
     57 H          -5.0442   -1.0873    3.4853 H       1  UNL1        0.0660
     58 H          -5.2462   -0.5630    5.1398 H       1  UNL1        0.0660
@<TRIPOS>UNITY_ATOM_ATTR
5 1
charge 1
@<TRIPOS>BOND
     1     1    23   ar
     2     1    26   ar
     3     2     6    1
     4     2    15    1
     5     3    24    1
     6     3    27    1
     7     4    16   ar
     8     4    20   ar
     9     5    17    1
    10     5    21    1
    11     5    28    1
    12     5    29    1
    13     6     8    1
    14     6     9    1
    15     6    10    1
    16     7     8    1
    17     7    11    1
    18     7    14    1
    19     7    16    1
    20     8    30    1
    21     8    31    1
    22     9    12    1
    23     9    32    1
    24     9    33    1
    25    10    13    1
    26    10    34    1
    27    10    35    1
    28    11    15    1
    29    11    36    1
    30    11    37    1
    31    12    13    1
    32    12    38    1
    33    12    39    1
    34    13    40    1
    35    13    41    1
    36    14    17    1
    37    14    42    1
    38    14    43    1
    39    15    44    1
    40    15    45    1
    41    16    18   ar
    42    17    46    1
    43    17    47    1
    44    18    19   ar
    45    18    48    1
    46    19    22   ar
    47    19    49    1
    48    20    22   ar
    49    20    50    1
    50    21    23    1
    51    21    51    1
    52    21    52    1
    53    22    53    1
    54    23    24   ar
    55    24    25   ar
    56    25    26   ar
    57    25    54    1
    58    26    55    1
    59    27    56    1
    60    27    57    1
    61    27    58    1
@<TRIPOS>MOLECULE
66553195
 58 61 0 0 0
SMALL
GASTEIGER

@<TRIPOS>ATOM
      1 S          -3.4198    2.9548    4.4167 S.2     1  UNL1       -0.0926
      2 O           3.9947    1.8338   -0.6210 O.3     1  UNL1       -0.3733
      3 O          -4.5164    1.2642    1.1182 O.3     1  UNL1       -0.4941
      4 N           1.8670   -1.7871    0.7861 N.ar    1  UNL1       -0.2593
      5 N          -1.6350    0.3940    2.2612 N.4     1  UNL1        0.2308
      6 C           3.9072    1.0510    0.5757 C.3     1  UNL1        0.0704
      7 C           1.4313    0.5057   -0.0051 C.3     1  UNL1        0.0224
      8 C           2.4527    0.9788    1.0713 C.3     1  UNL1       -0.0124
      9 C           4.8008    1.7382    1.6213 C.3     1  UNL1       -0.0237
     10 C           4.6231   -0.2974    0.4268 C.3     1  UNL1       -0.0237
     11 C           1.6850    1.3950   -1.2530 C.3     1  UNL1       -0.0181
     12 C           6.2268    1.3540    1.2306 C.3     1  UNL1       -0.0504
     13 C           6.1087    0.0588    0.4313 C.3     1  UNL1       -0.0504
     14 C          -0.0007    0.8133    0.4991 C.3     1  UNL1       -0.0013
     15 C           3.1485    1.4020   -1.6812 C.3     1  UNL1        0.0492
     16 C           1.4898   -1.0143   -0.2569 C.ar    1  UNL1        0.0478
     17 C          -0.2774    0.1027    1.8165 C.3     1  UNL1       -0.0325
     18 C           1.1606   -1.5078   -1.5090 C.ar    1  UNL1       -0.0398
     19 C           1.2221   -2.8832   -1.7031 C.ar    1  UNL1       -0.0586
     20 C           1.9154   -3.1192    0.5598 C.ar    1  UNL1        0.0279
     21 C          -1.8260    1.8261    2.4428 C.3     1  UNL1        0.0021
     22 C           1.6058   -3.7112   -0.6540 C.ar    1  UNL1       -0.0436
     23 C          -3.2171    2.1503    2.9188 C.ar    1  UNL1        0.0756
     24 C          -4.4226    1.8880    2.3056 C.ar    1  UNL1        0.1353
     25 C          -5.5270    2.3538    3.0758 C.ar    1  UNL1       -0.0124
     26 C          -5.1237    2.9543    4.2482 C.ar    1  UNL1       -0.0203
     27 C          -5.6255    1.6038    0.2740 C.3     1  UNL1        0.0788
     28 H          -1.8051   -0.0806    3.1479 H       1  UNL1        0.2017
     29 H          -2.2885    0.0656    1.5503 H       1  UNL1        0.2017
     30 H           2.1628    1.9541    1.4025 H       1  UNL1        0.0302
     31 H           2.4318    0.2502    1.8546 H       1  UNL1        0.0302
     32 H           4.5711    1.3839    2.6045 H       1  UNL1        0.0293
     33 H           4.6591    2.7986    1.6388 H       1  UNL1        0.0293
     34 H           4.3502   -0.7715   -0.4928 H       1  UNL1        0.0293
     35 H           4.3659   -0.9840    1.2061 H       1  UNL1        0.0293
     36 H           1.3901    2.3979   -1.0246 H       1  UNL1        0.0296
     37 H           1.1131    0.9894   -2.0613 H       1  UNL1        0.0296
     38 H           6.8229    1.1982    2.1054 H       1  UNL1        0.0266
     39 H           6.6984    2.1260    0.6592 H       1  UNL1        0.0266
     40 H           6.4591    0.2056   -0.5690 H       1  UNL1        0.0266
     41 H           6.6986   -0.7233    0.8618 H       1  UNL1        0.0266
     42 H          -0.7081    0.4828   -0.2325 H       1  UNL1        0.0326
     43 H          -0.0890    1.8682    0.6548 H       1  UNL1        0.0326
     44 H           3.4315    0.4119   -1.9720 H       1  UNL1        0.0560
     45 H           3.2580    2.0824   -2.4997 H       1  UNL1        0.0560
     46 H          -0.1674   -0.9529    1.6803 H       1  UNL1        0.0814
     47 H           0.4168    0.4462    2.5548 H       1  UNL1        0.0814
     48 H           0.8785   -0.8745   -2.2735 H       1  UNL1        0.0636
     49 H           0.9841   -3.2879   -2.6221 H       1  UNL1        0.0619
     50 H           2.2005   -3.7327    1.3391 H       1  UNL1        0.0829
     51 H          -1.6562    2.3191    1.5083 H       1  UNL1        0.0873
     52 H          -1.1339    2.1616    3.1867 H       1  UNL1        0.0873
     53 H           1.6582   -4.7347   -0.7756 H       1  UNL1        0.0633
     54 H          -6.5133    2.2530    2.7891 H       1  UNL1        0.0659
     55 H          -5.7722    3.3565    4.9430 H       1  UNL1        0.0694
     56 H          -5.5723    1.0348   -0.6306 H       1  UNL1        0.0660
     57 H          -5.5902    2.6477    0.0415 H       1  UNL1        0.0660
     58 H          -6.5410    1.3821    0.7815 H       1  UNL1        0.0660
@<TRIPOS>UNITY_ATOM_ATTR
5 1
charge 1
@<TRIPOS>BOND
     1     1    23   ar
     2     1    26   ar
     3     2     6    1
     4     2    15    1
     5     3    24    1
     6     3    27    1
     7     4    16   ar
     8     4    20   ar
     9     5    17    1
    10     5    21    1
    11     5    28    1
    12     5    29    1
    13     6     8    1
    14     6     9    1
    15     6    10    1
    16     7     8    1
    17     7    11    1
    18     7    14    1
    19     7    16    1
    20     8    30    1
    21     8    31    1
    22     9    12    1
    23     9    32    1
    24     9    33    1
    25    10    13    1
    26    10    34    1
    27    10    35    1
    28    11    15    1
    29    11    36    1
    30    11    37    1
    31    12    13    1
    32    12    38    1
    33    12    39    1
    34    13    40    1
    35    13    41    1
    36    14    17    1
    37    14    42    1
    38    14    43    1
    39    15    44    1
    40    15    45    1
    41    16    18   ar
    42    17    46    1
    43    17    47    1
    44    18    19   ar
    45    18    48    1
    46    19    22   ar
    47    19    49    1
    48    20    22   ar
    49    20    50    1
    50    21    23    1
    51    21    51    1
    52    21    52    1
    53    22    53    1
    54    23    24   ar
    55    24    25   ar
    56    25    26   ar
    57    25    54    1
    58    26    55    1
    59    27    56    1
    60    27    57    1
    61    27    58    1
@<TRIPOS>MOLECULE
66553195
 58 61 0 0 0
SMALL
GASTEIGER

@<TRIPOS>ATOM
      1 S          -5.0101    1.0618    0.9747 S.2     1  UNL1       -0.0926
      2 O           3.9947    1.8338   -0.6210 O.3     1  UNL1       -0.3733
      3 O          -3.8797    4.7577    0.9209 O.3     1  UNL1       -0.4941
      4 N           2.6736   -1.5136   -0.6773 N.ar    1  UNL1       -0.2593
      5 N          -1.5373    2.5691    1.2118 N.4     1  UNL1        0.2308
      6 C           3.9072    1.0510    0.5757 C.3     1  UNL1        0.0704
      7 C           1.4313    0.5057   -0.0051 C.3     1  UNL1        0.0224
      8 C           2.4527    0.9788    1.0713 C.3     1  UNL1       -0.0124
      9 C           4.8008    1.7382    1.6213 C.3     1  UNL1       -0.0237
     10 C           4.6231   -0.2974    0.4268 C.3     1  UNL1       -0.0237
     11 C           1.6850    1.3950   -1.2530 C.3     1  UNL1       -0.0181
     12 C           6.2268    1.3540    1.2306 C.3     1  UNL1       -0.0504
     13 C           6.1087    0.0588    0.4313 C.3     1  UNL1       -0.0504
     14 C          -0.0007    0.8133    0.4991 C.3     1  UNL1       -0.0013
     15 C           3.1485    1.4020   -1.6812 C.3     1  UNL1        0.0492
     16 C           1.4898   -1.0143   -0.2569 C.ar    1  UNL1        0.0478
     17 C          -0.1891    2.3072    0.7222 C.3     1  UNL1       -0.0325
     18 C           0.3554   -1.7812   -0.0456 C.ar    1  UNL1       -0.0398
     19 C           0.4416   -3.1489   -0.2805 C.ar    1  UNL1       -0.0586
     20 C           2.7193   -2.8472   -0.8953 C.ar    1  UNL1        0.0279
     21 C          -2.5353    2.0995    0.2612 C.3     1  UNL1        0.0021
     22 C           1.6425   -3.6999   -0.7135 C.ar    1  UNL1       -0.0436
     23 C          -3.9368    2.3747    0.7379 C.ar    1  UNL1        0.0756
     24 C          -4.5271    3.5845    1.0311 C.ar    1  UNL1        0.1353
     25 C          -5.8784    3.4312    1.4557 C.ar    1  UNL1       -0.0124
     26 C          -6.2695    2.1104    1.4711 C.ar    1  UNL1       -0.0203
     27 C          -4.2616    5.8146    1.8125 C.3     1  UNL1        0.0788
     28 H          -1.6536    3.5731    1.3494 H       1  UNL1        0.2017
     29 H          -1.6666    2.0715    2.0928 H       1  UNL1        0.2017
     30 H           2.1628    1.9541    1.4025 H       1  UNL1        0.0302
     31 H           2.4318    0.2502    1.8546 H       1  UNL1        0.0302
     32 H           4.5711    1.3839    2.6045 H       1  UNL1        0.0293
     33 H           4.6591    2.7986    1.6388 H       1  UNL1        0.0293
     34 H           4.3502   -0.7715   -0.4928 H       1  UNL1        0.0293
     35 H           4.3659   -0.9840    1.2061 H       1  UNL1        0.0293
     36 H           1.3901    2.3979   -1.0246 H       1  UNL1        0.0296
     37 H           1.1131    0.9894   -2.0613 H       1  UNL1        0.0296
     38 H           6.8229    1.1982    2.1054 H       1  UNL1        0.0266
     39 H           6.6984    2.1260    0.6592 H       1  UNL1        0.0266
     40 H           6.4591    0.2056   -0.5690 H       1  UNL1        0.0266
     41 H           6.6986   -0.7233    0.8618 H       1  UNL1        0.0266
     42 H          -0.1653    0.2978    1.4221 H       1  UNL1        0.0326
     43 H          -0.7011    0.4874   -0.2413 H       1  UNL1        0.0326
     44 H           3.4315    0.4119   -1.9720 H       1  UNL1        0.0560
     45 H           3.2580    2.0824   -2.4997 H       1  UNL1        0.0560
     46 H           0.5232    2.6510    1.4429 H       1  UNL1        0.0814
     47 H          -0.0440    2.8230   -0.2040 H       1  UNL1        0.0814
     48 H          -0.5258   -1.3509    0.2761 H       1  UNL1        0.0636
     49 H          -0.3824   -3.7527   -0.1341 H       1  UNL1        0.0619
     50 H           3.6111   -3.2550   -1.2169 H       1  UNL1        0.0829
     51 H          -2.4163    1.0445    0.1273 H       1  UNL1        0.0873
     52 H          -2.3890    2.6238   -0.6599 H       1  UNL1        0.0873
     53 H           1.7291   -4.7124   -0.8938 H       1  UNL1        0.0633
     54 H          -6.4922    4.2174    1.7207 H       1  UNL1        0.0659
     55 H          -7.2105    1.7906    1.7490 H       1  UNL1        0.0694
     56 H          -3.6677    6.6819    1.6126 H       1  UNL1        0.0660
     57 H          -4.1067    5.5015    2.8239 H       1  UNL1        0.0660
     58 H          -5.2953    6.0488    1.6660 H       1  UNL1        0.0660
@<TRIPOS>UNITY_ATOM_ATTR
5 1
charge 1
@<TRIPOS>BOND
     1     1    23   ar
     2     1    26   ar
     3     2     6    1
     4     2    15    1
     5     3    24    1
     6     3    27    1
     7     4    16   ar
     8     4    20   ar
     9     5    17    1
    10     5    21    1
    11     5    28    1
    12     5    29    1
    13     6     8    1
    14     6     9    1
    15     6    10    1
    16     7     8    1
    17     7    11    1
    18     7    14    1
    19     7    16    1
    20     8    30    1
    21     8    31    1
    22     9    12    1
    23     9    32    1
    24     9    33    1
    25    10    13    1
    26    10    34    1
    27    10    35    1
    28    11    15    1
    29    11    36    1
    30    11    37    1
    31    12    13    1
    32    12    38    1
    33    12    39    1
    34    13    40    1
    35    13    41    1
    36    14    17    1
    37    14    42    1
    38    14    43    1
    39    15    44    1
    40    15    45    1
    41    16    18   ar
    42    17    46    1
    43    17    47    1
    44    18    19   ar
    45    18    48    1
    46    19    22   ar
    47    19    49    1
    48    20    22   ar
    49    20    50    1
    50    21    23    1
    51    21    51    1
    52    21    52    1
    53    22    53    1
    54    23    24   ar
    55    24    25   ar
    56    25    26   ar
    57    25    54    1
    58    26    55    1
    59    27    56    1
    60    27    57    1
    61    27    58    1
@<TRIPOS>MOLECULE
66553195
 58 61 0 0 0
SMALL
GASTEIGER

@<TRIPOS>ATOM
      1 S          -3.6503    3.7868    3.1762 S.2     1  UNL1       -0.0926
      2 O           3.9947    1.8338   -0.6210 O.3     1  UNL1       -0.3733
      3 O          -4.1545   -0.0439    3.0669 O.3     1  UNL1       -0.4941
      4 N           0.6793   -1.7857    0.5017 N.ar    1  UNL1       -0.2593
      5 N          -1.6350    0.3940    2.2612 N.4     1  UNL1        0.2308
      6 C           3.9072    1.0510    0.5757 C.3     1  UNL1        0.0704
      7 C           1.4313    0.5057   -0.0051 C.3     1  UNL1        0.0224
      8 C           2.4527    0.9788    1.0713 C.3     1  UNL1       -0.0124
      9 C           4.8008    1.7382    1.6213 C.3     1  UNL1       -0.0237
     10 C           4.6231   -0.2974    0.4268 C.3     1  UNL1       -0.0237
     11 C           1.6850    1.3950   -1.2530 C.3     1  UNL1       -0.0181
     12 C           6.2268    1.3540    1.2306 C.3     1  UNL1       -0.0504
     13 C           6.1087    0.0588    0.4313 C.3     1  UNL1       -0.0504
     14 C          -0.0007    0.8133    0.4991 C.3     1  UNL1       -0.0013
     15 C           3.1485    1.4020   -1.6812 C.3     1  UNL1        0.0492
     16 C           1.4898   -1.0143   -0.2569 C.ar    1  UNL1        0.0478
     17 C          -0.2774    0.1027    1.8165 C.3     1  UNL1       -0.0325
     18 C           2.3481   -1.5091   -1.2255 C.ar    1  UNL1       -0.0398
     19 C           2.3761   -2.8842   -1.4290 C.ar    1  UNL1       -0.0586
     20 C           0.7340   -3.1176    0.2757 C.ar    1  UNL1        0.0279
     21 C          -1.8260    1.8261    2.4428 C.3     1  UNL1        0.0021
     22 C           1.5567   -3.7107   -0.6683 C.ar    1  UNL1       -0.0436
     23 C          -3.2171    2.1503    2.9188 C.ar    1  UNL1        0.0756
     24 C          -4.2572    1.2905    3.1959 C.ar    1  UNL1        0.1353
     25 C          -5.4250    1.9845    3.6252 C.ar    1  UNL1       -0.0124
     26 C          -5.2333    3.3483    3.6598 C.ar    1  UNL1       -0.0203
     27 C          -5.3414   -0.7724    2.7227 C.3     1  UNL1        0.0788
     28 H          -1.8051   -0.0806    3.1479 H       1  UNL1        0.2017
     29 H          -2.2885    0.0656    1.5503 H       1  UNL1        0.2017
     30 H           2.1628    1.9541    1.4025 H       1  UNL1        0.0302
     31 H           2.4318    0.2502    1.8546 H       1  UNL1        0.0302
     32 H           4.5711    1.3839    2.6045 H       1  UNL1        0.0293
     33 H           4.6591    2.7986    1.6388 H       1  UNL1        0.0293
     34 H           4.3502   -0.7715   -0.4928 H       1  UNL1        0.0293
     35 H           4.3659   -0.9840    1.2061 H       1  UNL1        0.0293
     36 H           1.3901    2.3979   -1.0246 H       1  UNL1        0.0296
     37 H           1.1131    0.9894   -2.0613 H       1  UNL1        0.0296
     38 H           6.8229    1.1982    2.1054 H       1  UNL1        0.0266
     39 H           6.6984    2.1260    0.6592 H       1  UNL1        0.0266
     40 H           6.4591    0.2056   -0.5690 H       1  UNL1        0.0266
     41 H           6.6986   -0.7233    0.8618 H       1  UNL1        0.0266
     42 H          -0.7081    0.4828   -0.2325 H       1  UNL1        0.0326
     43 H          -0.0890    1.8682    0.6548 H       1  UNL1        0.0326
     44 H           3.4315    0.4119   -1.9720 H       1  UNL1        0.0560
     45 H           3.2580    2.0824   -2.4997 H       1  UNL1        0.0560
     46 H          -0.1674   -0.9529    1.6803 H       1  UNL1        0.0814
     47 H           0.4168    0.4462    2.5548 H       1  UNL1        0.0814
     48 H           2.9477   -0.8769   -1.7786 H       1  UNL1        0.0636
     49 H           3.0026   -3.2898   -2.1417 H       1  UNL1        0.0619
     50 H           0.1256   -3.7300    0.8411 H       1  UNL1        0.0829
     51 H          -1.6562    2.3191    1.5083 H       1  UNL1        0.0873
     52 H          -1.1339    2.1616    3.1867 H       1  UNL1        0.0873
     53 H           1.5611   -4.7340   -0.8026 H       1  UNL1        0.0633
     54 H          -6.3107    1.5201    3.8803 H       1  UNL1        0.0659
     55 H          -5.9581    4.0257    3.9436 H       1  UNL1        0.0694
     56 H          -5.1125   -1.8154    2.6547 H       1  UNL1        0.0660
     57 H          -5.7117   -0.4262    1.7803 H       1  UNL1        0.0660
     58 H          -6.0853   -0.6189    3.4764 H       1  UNL1        0.0660
@<TRIPOS>UNITY_ATOM_ATTR
5 1
charge 1
@<TRIPOS>BOND
     1     1    23   ar
     2     1    26   ar
     3     2     6    1
     4     2    15    1
     5     3    24    1
     6     3    27    1
     7     4    16   ar
     8     4    20   ar
     9     5    17    1
    10     5    21    1
    11     5    28    1
    12     5    29    1
    13     6     8    1
    14     6     9    1
    15     6    10    1
    16     7     8    1
    17     7    11    1
    18     7    14    1
    19     7    16    1
    20     8    30    1
    21     8    31    1
    22     9    12    1
    23     9    32    1
    24     9    33    1
    25    10    13    1
    26    10    34    1
    27    10    35    1
    28    11    15    1
    29    11    36    1
    30    11    37    1
    31    12    13    1
    32    12    38    1
    33    12    39    1
    34    13    40    1
    35    13    41    1
    36    14    17    1
    37    14    42    1
    38    14    43    1
    39    15    44    1
    40    15    45    1
    41    16    18   ar
    42    17    46    1
    43    17    47    1
    44    18    19   ar
    45    18    48    1
    46    19    22   ar
    47    19    49    1
    48    20    22   ar
    49    20    50    1
    50    21    23    1
    51    21    51    1
    52    21    52    1
    53    22    53    1
    54    23    24   ar
    55    24    25   ar
    56    25    26   ar
    57    25    54    1
    58    26    55    1
    59    27    56    1
    60    27    57    1
    61    27    58    1
@<TRIPOS>MOLECULE
66553195
 58 61 0 0 0
SMALL
GASTEIGER

@<TRIPOS>ATOM
      1 S          -4.5565    1.6889    1.9570 S.2     1  UNL1       -0.0926
      2 O           3.9947    1.8338   -0.6210 O.3     1  UNL1       -0.3733
      3 O          -2.7304    3.2516    4.9841 O.3     1  UNL1       -0.4941
      4 N           1.8670   -1.7871    0.7861 N.ar    1  UNL1       -0.2593
      5 N          -1.6350    0.3940    2.2612 N.4     1  UNL1        0.2308
      6 C           3.9072    1.0510    0.5757 C.3     1  UNL1        0.0704
      7 C           1.4313    0.5057   -0.0051 C.3     1  UNL1        0.0224
      8 C           2.4527    0.9788    1.0713 C.3     1  UNL1       -0.0124
      9 C           4.8008    1.7382    1.6213 C.3     1  UNL1       -0.0237
     10 C           4.6231   -0.2974    0.4268 C.3     1  UNL1       -0.0237
     11 C           1.6850    1.3950   -1.2530 C.3     1  UNL1       -0.0181
     12 C           6.2268    1.3540    1.2306 C.3     1  UNL1       -0.0504
     13 C           6.1087    0.0588    0.4313 C.3     1  UNL1       -0.0504
     14 C          -0.0007    0.8133    0.4991 C.3     1  UNL1       -0.0013
     15 C           3.1485    1.4020   -1.6812 C.3     1  UNL1        0.0492
     16 C           1.4898   -1.0143   -0.2569 C.ar    1  UNL1        0.0478
     17 C          -0.2774    0.1027    1.8165 C.3     1  UNL1       -0.0325
     18 C           1.1606   -1.5078   -1.5090 C.ar    1  UNL1       -0.0398
     19 C           1.2221   -2.8832   -1.7031 C.ar    1  UNL1       -0.0586
     20 C           1.9154   -3.1192    0.5598 C.ar    1  UNL1        0.0279
     21 C          -1.8260    1.8261    2.4428 C.3     1  UNL1        0.0021
     22 C           1.6058   -3.7112   -0.6540 C.ar    1  UNL1       -0.0436
     23 C          -3.2171    2.1503    2.9188 C.ar    1  UNL1        0.0756
     24 C          -3.6066    2.7962    4.0717 C.ar    1  UNL1        0.1353
     25 C          -5.0233    2.9136    4.1664 C.ar    1  UNL1       -0.0124
     26 C          -5.6627    2.3530    3.0826 C.ar    1  UNL1       -0.0203
     27 C          -3.1533    3.2839    6.3546 C.3     1  UNL1        0.0788
     28 H          -1.8051   -0.0806    3.1479 H       1  UNL1        0.2017
     29 H          -2.2885    0.0656    1.5503 H       1  UNL1        0.2017
     30 H           2.1628    1.9541    1.4025 H       1  UNL1        0.0302
     31 H           2.4318    0.2502    1.8546 H       1  UNL1        0.0302
     32 H           4.5711    1.3839    2.6045 H       1  UNL1        0.0293
     33 H           4.6591    2.7986    1.6388 H       1  UNL1        0.0293
     34 H           4.3502   -0.7715   -0.4928 H       1  UNL1        0.0293
     35 H           4.3659   -0.9840    1.2061 H       1  UNL1        0.0293
     36 H           1.3901    2.3979   -1.0246 H       1  UNL1        0.0296
     37 H           1.1131    0.9894   -2.0613 H       1  UNL1        0.0296
     38 H           6.8229    1.1982    2.1054 H       1  UNL1        0.0266
     39 H           6.6984    2.1260    0.6592 H       1  UNL1        0.0266
     40 H           6.4591    0.2056   -0.5690 H       1  UNL1        0.0266
     41 H           6.6986   -0.7233    0.8618 H       1  UNL1        0.0266
     42 H          -0.7081    0.4828   -0.2325 H       1  UNL1        0.0326
     43 H          -0.0890    1.8682    0.6548 H       1  UNL1        0.0326
     44 H           3.4315    0.4119   -1.9720 H       1  UNL1        0.0560
     45 H           3.2580    2.0824   -2.4997 H       1  UNL1        0.0560
     46 H          -0.1674   -0.9529    1.6803 H       1  UNL1        0.0814
     47 H           0.4168    0.4462    2.5548 H       1  UNL1        0.0814
     48 H           0.8785   -0.8745   -2.2735 H       1  UNL1        0.0636
     49 H           0.9841   -3.2879   -2.6221 H       1  UNL1        0.0619
     50 H           2.2005   -3.7327    1.3391 H       1  UNL1        0.0829
     51 H          -1.6562    2.3191    1.5083 H       1  UNL1        0.0873
     52 H          -1.1339    2.1616    3.1867 H       1  UNL1        0.0873
     53 H           1.6582   -4.7347   -0.7756 H       1  UNL1        0.0633
     54 H          -5.5130    3.3655    4.9545 H       1  UNL1        0.0659
     55 H          -6.6876    2.3354    2.9632 H       1  UNL1        0.0694
     56 H          -2.3606    3.6658    6.9635 H       1  UNL1        0.0660
     57 H          -3.4032    2.2937    6.6741 H       1  UNL1        0.0660
     58 H          -4.0113    3.9162    6.4483 H       1  UNL1        0.0660
@<TRIPOS>UNITY_ATOM_ATTR
5 1
charge 1
@<TRIPOS>BOND
     1     1    23   ar
     2     1    26   ar
     3     2     6    1
     4     2    15    1
     5     3    24    1
     6     3    27    1
     7     4    16   ar
     8     4    20   ar
     9     5    17    1
    10     5    21    1
    11     5    28    1
    12     5    29    1
    13     6     8    1
    14     6     9    1
    15     6    10    1
    16     7     8    1
    17     7    11    1
    18     7    14    1
    19     7    16    1
    20     8    30    1
    21     8    31    1
    22     9    12    1
    23     9    32    1
    24     9    33    1
    25    10    13    1
    26    10    34    1
    27    10    35    1
    28    11    15    1
    29    11    36    1
    30    11    37    1
    31    12    13    1
    32    12    38    1
    33    12    39    1
    34    13    40    1
    35    13    41    1
    36    14    17    1
    37    14    42    1
    38    14    43    1
    39    15    44    1
    40    15    45    1
    41    16    18   ar
    42    17    46    1
    43    17    47    1
    44    18    19   ar
    45    18    48    1
    46    19    22   ar
    47    19    49    1
    48    20    22   ar
    49    20    50    1
    50    21    23    1
    51    21    51    1
    52    21    52    1
    53    22    53    1
    54    23    24   ar
    55    24    25   ar
    56    25    26   ar
    57    25    54    1
    58    26    55    1
    59    27    56    1
    60    27    57    1
    61    27    58    1
@<TRIPOS>MOLECULE
66553195
 58 61 0 0 0
SMALL
GASTEIGER

@<TRIPOS>ATOM
      1 S          -3.5589    0.7924    5.5060 S.2     1  UNL1       -0.0926
      2 O           3.9947    1.8338   -0.6210 O.3     1  UNL1       -0.3733
      3 O          -4.5812   -0.9005    2.1850 O.3     1  UNL1       -0.4941
      4 N           1.8670   -1.7871    0.7861 N.ar    1  UNL1       -0.2593
      5 N          -1.6350    0.3940    2.2612 N.4     1  UNL1        0.2308
      6 C           3.9072    1.0510    0.5757 C.3     1  UNL1        0.0704
      7 C           1.4313    0.5057   -0.0051 C.3     1  UNL1        0.0224
      8 C           2.4527    0.9788    1.0713 C.3     1  UNL1       -0.0124
      9 C           4.8008    1.7382    1.6213 C.3     1  UNL1       -0.0237
     10 C           4.6231   -0.2974    0.4268 C.3     1  UNL1       -0.0237
     11 C           1.6850    1.3950   -1.2530 C.3     1  UNL1       -0.0181
     12 C           6.2268    1.3540    1.2306 C.3     1  UNL1       -0.0504
     13 C           6.1087    0.0588    0.4313 C.3     1  UNL1       -0.0504
     14 C          -0.0007    0.8133    0.4991 C.3     1  UNL1       -0.0013
     15 C           3.1485    1.4020   -1.6812 C.3     1  UNL1        0.0492
     16 C           1.4898   -1.0143   -0.2569 C.ar    1  UNL1        0.0478
     17 C          -0.2774    0.1027    1.8165 C.3     1  UNL1       -0.0325
     18 C           1.1606   -1.5078   -1.5090 C.ar    1  UNL1       -0.0398
     19 C           1.2221   -2.8832   -1.7031 C.ar    1  UNL1       -0.0586
     20 C           1.9154   -3.1192    0.5598 C.ar    1  UNL1        0.0279
     21 C          -1.9180   -0.2623    3.5298 C.3     1  UNL1        0.0021
     22 C           1.6058   -3.7112   -0.6540 C.ar    1  UNL1       -0.0436
     23 C          -3.3217    0.0104    4.0014 C.ar    1  UNL1        0.0756
     24 C          -4.5144   -0.2859    3.3789 C.ar    1  UNL1        0.1353
     25 C          -5.6378    0.1348    4.1477 C.ar    1  UNL1       -0.0124
     26 C          -5.2610    0.7366    5.3282 C.ar    1  UNL1       -0.0203
     27 C          -5.7221   -1.7310    1.9269 C.3     1  UNL1        0.0788
     28 H          -2.2953    0.0614    1.5586 H       1  UNL1        0.2017
     29 H          -1.7274    1.4019    2.3879 H       1  UNL1        0.2017
     30 H           2.1628    1.9541    1.4025 H       1  UNL1        0.0302
     31 H           2.4318    0.2502    1.8546 H       1  UNL1        0.0302
     32 H           4.5711    1.3839    2.6045 H       1  UNL1        0.0293
     33 H           4.6591    2.7986    1.6388 H       1  UNL1        0.0293
     34 H           4.3502   -0.7715   -0.4928 H       1  UNL1        0.0293
     35 H           4.3659   -0.9840    1.2061 H       1  UNL1        0.0293
     36 H           1.3901    2.3979   -1.0246 H       1  UNL1        0.0296
     37 H           1.1131    0.9894   -2.0613 H       1  UNL1        0.0296
     38 H           6.8229    1.1982    2.1054 H       1  UNL1        0.0266
     39 H           6.6984    2.1260    0.6592 H       1  UNL1        0.0266
     40 H           6.4591    0.2056   -0.5690 H       1  UNL1        0.0266
     41 H           6.6986   -0.7233    0.8618 H       1  UNL1        0.0266
     42 H          -0.7081    0.4828   -0.2325 H       1  UNL1        0.0326
     43 H          -0.0890    1.8682    0.6548 H       1  UNL1        0.0326
     44 H           3.4315    0.4119   -1.9720 H       1  UNL1        0.0560
     45 H           3.2580    2.0824   -2.4997 H       1  UNL1        0.0560
     46 H          -0.1674   -0.9529    1.6803 H       1  UNL1        0.0814
     47 H           0.4168    0.4462    2.5548 H       1  UNL1        0.0814
     48 H           0.8785   -0.8745   -2.2735 H       1  UNL1        0.0636
     49 H           0.9841   -3.2879   -2.6221 H       1  UNL1        0.0619
     50 H           2.2005   -3.7327    1.3391 H       1  UNL1        0.0829
     51 H          -1.2296    0.0966    4.2663 H       1  UNL1        0.0873
     52 H          -1.8146   -1.3178    3.3878 H       1  UNL1        0.0873
     53 H           1.6582   -4.7347   -0.7756 H       1  UNL1        0.0633
     54 H          -6.6187    0.0040    3.8545 H       1  UNL1        0.0659
     55 H          -5.9262    1.1098    6.0233 H       1  UNL1        0.0694
     56 H          -5.6422   -2.1522    0.9466 H       1  UNL1        0.0660
     57 H          -6.6134   -1.1424    1.9907 H       1  UNL1        0.0660
     58 H          -5.7617   -2.5177    2.6510 H       1  UNL1        0.0660
@<TRIPOS>UNITY_ATOM_ATTR
5 1
charge 1
@<TRIPOS>BOND
     1     1    23   ar
     2     1    26   ar
     3     2     6    1
     4     2    15    1
     5     3    24    1
     6     3    27    1
     7     4    16   ar
     8     4    20   ar
     9     5    17    1
    10     5    21    1
    11     5    28    1
    12     5    29    1
    13     6     8    1
    14     6     9    1
    15     6    10    1
    16     7     8    1
    17     7    11    1
    18     7    14    1
    19     7    16    1
    20     8    30    1
    21     8    31    1
    22     9    12    1
    23     9    32    1
    24     9    33    1
    25    10    13    1
    26    10    34    1
    27    10    35    1
    28    11    15    1
    29    11    36    1
    30    11    37    1
    31    12    13    1
    32    12    38    1
    33    12    39    1
    34    13    40    1
    35    13    41    1
    36    14    17    1
    37    14    42    1
    38    14    43    1
    39    15    44    1
    40    15    45    1
    41    16    18   ar
    42    17    46    1
    43    17    47    1
    44    18    19   ar
    45    18    48    1
    46    19    22   ar
    47    19    49    1
    48    20    22   ar
    49    20    50    1
    50    21    23    1
    51    21    51    1
    52    21    52    1
    53    22    53    1
    54    23    24   ar
    55    24    25   ar
    56    25    26   ar
    57    25    54    1
    58    26    55    1
    59    27    56    1
    60    27    57    1
    61    27    58    1
@<TRIPOS>MOLECULE
66553195
 58 61 0 0 0
SMALL
GASTEIGER

@<TRIPOS>ATOM
      1 S          -3.4198    2.9548    4.4167 S.2     1  UNL1       -0.0926
      2 O           3.9947    1.8338   -0.6210 O.3     1  UNL1       -0.3733
      3 O          -4.5164    1.2642    1.1182 O.3     1  UNL1       -0.4941
      4 N           1.7905   -1.4089   -1.5144 N.ar    1  UNL1       -0.2593
      5 N          -1.6350    0.3940    2.2612 N.4     1  UNL1        0.2308
      6 C           3.9072    1.0510    0.5757 C.3     1  UNL1        0.0704
      7 C           1.4313    0.5057   -0.0051 C.3     1  UNL1        0.0224
      8 C           2.4527    0.9788    1.0713 C.3     1  UNL1       -0.0124
      9 C           4.8008    1.7382    1.6213 C.3     1  UNL1       -0.0237
     10 C           4.6231   -0.2974    0.4268 C.3     1  UNL1       -0.0237
     11 C           1.6850    1.3950   -1.2530 C.3     1  UNL1       -0.0181
     12 C           6.2268    1.3540    1.2306 C.3     1  UNL1       -0.0504
     13 C           6.1087    0.0588    0.4313 C.3     1  UNL1       -0.0504
     14 C          -0.0007    0.8133    0.4991 C.3     1  UNL1       -0.0013
     15 C           3.1485    1.4020   -1.6812 C.3     1  UNL1        0.0492
     16 C           1.4898   -1.0143   -0.2569 C.ar    1  UNL1        0.0478
     17 C          -0.2774    0.1027    1.8165 C.3     1  UNL1       -0.0325
     18 C           1.2388   -1.8858    0.7906 C.ar    1  UNL1       -0.0398
     19 C           1.3008   -3.2503    0.5309 C.ar    1  UNL1       -0.0586
     20 C           1.8415   -2.7429   -1.7290 C.ar    1  UNL1        0.0279
     21 C          -1.8260    1.8261    2.4428 C.3     1  UNL1        0.0021
     22 C           1.6073   -3.6952   -0.7503 C.ar    1  UNL1       -0.0436
     23 C          -3.2171    2.1503    2.9188 C.ar    1  UNL1        0.0756
     24 C          -4.4226    1.8880    2.3056 C.ar    1  UNL1        0.1353
     25 C          -5.5270    2.3538    3.0758 C.ar    1  UNL1       -0.0124
     26 C          -5.1237    2.9543    4.2482 C.ar    1  UNL1       -0.0203
     27 C          -3.4326    1.4286    0.1928 C.3     1  UNL1        0.0788
     28 H          -1.8051   -0.0806    3.1479 H       1  UNL1        0.2017
     29 H          -2.2885    0.0656    1.5503 H       1  UNL1        0.2017
     30 H           2.1628    1.9541    1.4025 H       1  UNL1        0.0302
     31 H           2.4318    0.2502    1.8546 H       1  UNL1        0.0302
     32 H           4.5711    1.3839    2.6045 H       1  UNL1        0.0293
     33 H           4.6591    2.7986    1.6388 H       1  UNL1        0.0293
     34 H           4.3502   -0.7715   -0.4928 H       1  UNL1        0.0293
     35 H           4.3659   -0.9840    1.2061 H       1  UNL1        0.0293
     36 H           1.3901    2.3979   -1.0246 H       1  UNL1        0.0296
     37 H           1.1131    0.9894   -2.0613 H       1  UNL1        0.0296
     38 H           6.8229    1.1982    2.1054 H       1  UNL1        0.0266
     39 H           6.6984    2.1260    0.6592 H       1  UNL1        0.0266
     40 H           6.4591    0.2056   -0.5690 H       1  UNL1        0.0266
     41 H           6.6986   -0.7233    0.8618 H       1  UNL1        0.0266
     42 H          -0.7081    0.4828   -0.2325 H       1  UNL1        0.0326
     43 H          -0.0890    1.8682    0.6548 H       1  UNL1        0.0326
     44 H           3.4315    0.4119   -1.9720 H       1  UNL1        0.0560
     45 H           3.2580    2.0824   -2.4997 H       1  UNL1        0.0560
     46 H          -0.1674   -0.9529    1.6803 H       1  UNL1        0.0814
     47 H           0.4168    0.4462    2.5548 H       1  UNL1        0.0814
     48 H           1.0130   -1.5332    1.7339 H       1  UNL1        0.0636
     49 H           1.1199   -3.9301    1.2859 H       1  UNL1        0.0619
     50 H           2.0688   -3.0719   -2.6803 H       1  UNL1        0.0829
     51 H          -1.6562    2.3191    1.5083 H       1  UNL1        0.0873
     52 H          -1.1339    2.1616    3.1867 H       1  UNL1        0.0873
     53 H           1.6588   -4.7032   -0.9654 H       1  UNL1        0.0633
     54 H          -6.5133    2.2530    2.7891 H       1  UNL1        0.0659
     55 H          -5.7722    3.3565    4.9430 H       1  UNL1        0.0694
     56 H          -3.6416    0.8806   -0.7022 H       1  UNL1        0.0660
     57 H          -2.5290    1.0615    0.6330 H       1  UNL1        0.0660
     58 H          -3.3188    2.4661   -0.0426 H       1  UNL1        0.0660
@<TRIPOS>UNITY_ATOM_ATTR
5 1
charge 1
@<TRIPOS>BOND
     1     1    23   ar
     2     1    26   ar
     3     2     6    1
     4     2    15    1
     5     3    24    1
     6     3    27    1
     7     4    16   ar
     8     4    20   ar
     9     5    17    1
    10     5    21    1
    11     5    28    1
    12     5    29    1
    13     6     8    1
    14     6     9    1
    15     6    10    1
    16     7     8    1
    17     7    11    1
    18     7    14    1
    19     7    16    1
    20     8    30    1
    21     8    31    1
    22     9    12    1
    23     9    32    1
    24     9    33    1
    25    10    13    1
    26    10    34    1
    27    10    35    1
    28    11    15    1
    29    11    36    1
    30    11    37    1
    31    12    13    1
    32    12    38    1
    33    12    39    1
    34    13    40    1
    35    13    41    1
    36    14    17    1
    37    14    42    1
    38    14    43    1
    39    15    44    1
    40    15    45    1
    41    16    18   ar
    42    17    46    1
    43    17    47    1
    44    18    19   ar
    45    18    48    1
    46    19    22   ar
    47    19    49    1
    48    20    22   ar
    49    20    50    1
    50    21    23    1
    51    21    51    1
    52    21    52    1
    53    22    53    1
    54    23    24   ar
    55    24    25   ar
    56    25    26   ar
    57    25    54    1
    58    26    55    1
    59    27    56    1
    60    27    57    1
    61    27    58    1
@<TRIPOS>MOLECULE
66553195
 58 61 0 0 0
SMALL
GASTEIGER

@<TRIPOS>ATOM
      1 S          -3.0468   -1.4881    2.2222 S.2     1  UNL1       -0.0926
      2 O           3.9947    1.8338   -0.6210 O.3     1  UNL1       -0.3733
      3 O          -1.5105   -1.9997    5.7320 O.3     1  UNL1       -0.4941
      4 N           2.6863   -1.6142   -0.0673 N.ar    1  UNL1       -0.2593
      5 N          -0.1319   -1.3376    1.6429 N.4     1  UNL1        0.2308
      6 C           3.9072    1.0510    0.5757 C.3     1  UNL1        0.0704
      7 C           1.4313    0.5057   -0.0051 C.3     1  UNL1        0.0224
      8 C           2.4527    0.9788    1.0713 C.3     1  UNL1       -0.0124
      9 C           4.8008    1.7382    1.6213 C.3     1  UNL1       -0.0237
     10 C           4.6231   -0.2974    0.4268 C.3     1  UNL1       -0.0237
     11 C           1.6850    1.3950   -1.2530 C.3     1  UNL1       -0.0181
     12 C           6.2268    1.3540    1.2306 C.3     1  UNL1       -0.0504
     13 C           6.1087    0.0588    0.4313 C.3     1  UNL1       -0.0504
     14 C          -0.0007    0.8133    0.4991 C.3     1  UNL1       -0.0013
     15 C           3.1485    1.4020   -1.6812 C.3     1  UNL1        0.0492
     16 C           1.4898   -1.0143   -0.2569 C.ar    1  UNL1        0.0478
     17 C          -0.2774    0.1027    1.8165 C.3     1  UNL1       -0.0325
     18 C           0.3423   -1.6807   -0.6553 C.ar    1  UNL1       -0.0398
     19 C           0.4282   -3.0513   -0.8728 C.ar    1  UNL1       -0.0586
     20 C           2.7313   -2.9472   -0.2884 C.ar    1  UNL1        0.0279
     21 C          -0.4083   -2.0412    2.8874 C.3     1  UNL1        0.0021
     22 C           1.6418   -3.7042   -0.6880 C.ar    1  UNL1       -0.0436
     23 C          -1.8137   -1.7971    3.3693 C.ar    1  UNL1        0.0756
     24 C          -2.2933   -1.7822    4.6607 C.ar    1  UNL1        0.1353
     25 C          -3.6916   -1.5135    4.7088 C.ar    1  UNL1       -0.0124
     26 C          -4.2276   -1.3334    3.4526 C.ar    1  UNL1       -0.0203
     27 C          -2.1309   -1.9753    7.0252 C.3     1  UNL1        0.0788
     28 H           0.8224   -1.5438    1.3475 H       1  UNL1        0.2017
     29 H          -0.7985   -1.6499    0.9369 H       1  UNL1        0.2017
     30 H           2.1628    1.9541    1.4025 H       1  UNL1        0.0302
     31 H           2.4318    0.2502    1.8546 H       1  UNL1        0.0302
     32 H           4.5711    1.3839    2.6045 H       1  UNL1        0.0293
     33 H           4.6591    2.7986    1.6388 H       1  UNL1        0.0293
     34 H           4.3502   -0.7715   -0.4928 H       1  UNL1        0.0293
     35 H           4.3659   -0.9840    1.2061 H       1  UNL1        0.0293
     36 H           1.3901    2.3979   -1.0246 H       1  UNL1        0.0296
     37 H           1.1131    0.9894   -2.0613 H       1  UNL1        0.0296
     38 H           6.8229    1.1982    2.1054 H       1  UNL1        0.0266
     39 H           6.6984    2.1260    0.6592 H       1  UNL1        0.0266
     40 H           6.4591    0.2056   -0.5690 H       1  UNL1        0.0266
     41 H           6.6986   -0.7233    0.8618 H       1  UNL1        0.0266
     42 H          -0.7081    0.4828   -0.2325 H       1  UNL1        0.0326
     43 H          -0.0890    1.8682    0.6548 H       1  UNL1        0.0326
     44 H           3.4315    0.4119   -1.9720 H       1  UNL1        0.0560
     45 H           3.2580    2.0824   -2.4997 H       1  UNL1        0.0560
     46 H           0.4171    0.4430    2.5560 H       1  UNL1        0.0814
     47 H          -1.2765    0.3206    2.1315 H       1  UNL1        0.0814
     48 H          -0.5482   -1.1758   -0.7865 H       1  UNL1        0.0636
     49 H          -0.4055   -3.5819   -1.1703 H       1  UNL1        0.0619
     50 H           3.6327   -3.4307   -0.1512 H       1  UNL1        0.0829
     51 H           0.2778   -1.7033    3.6357 H       1  UNL1        0.0873
     52 H          -0.2964   -3.0901    2.7076 H       1  UNL1        0.0873
     53 H           1.7283   -4.7207   -0.8435 H       1  UNL1        0.0633
     54 H          -4.2388   -1.4601    5.5822 H       1  UNL1        0.0659
     55 H          -5.2233   -1.1294    3.2741 H       1  UNL1        0.0694
     56 H          -1.3938   -2.1624    7.7780 H       1  UNL1        0.0660
     57 H          -2.8880   -2.7300    7.0720 H       1  UNL1        0.0660
     58 H          -2.5736   -1.0153    7.1904 H       1  UNL1        0.0660
@<TRIPOS>UNITY_ATOM_ATTR
5 1
charge 1
@<TRIPOS>BOND
     1     1    23   ar
     2     1    26   ar
     3     2     6    1
     4     2    15    1
     5     3    24    1
     6     3    27    1
     7     4    16   ar
     8     4    20   ar
     9     5    17    1
    10     5    21    1
    11     5    28    1
    12     5    29    1
    13     6     8    1
    14     6     9    1
    15     6    10    1
    16     7     8    1
    17     7    11    1
    18     7    14    1
    19     7    16    1
    20     8    30    1
    21     8    31    1
    22     9    12    1
    23     9    32    1
    24     9    33    1
    25    10    13    1
    26    10    34    1
    27    10    35    1
    28    11    15    1
    29    11    36    1
    30    11    37    1
    31    12    13    1
    32    12    38    1
    33    12    39    1
    34    13    40    1
    35    13    41    1
    36    14    17    1
    37    14    42    1
    38    14    43    1
    39    15    44    1
    40    15    45    1
    41    16    18   ar
    42    17    46    1
    43    17    47    1
    44    18    19   ar
    45    18    48    1
    46    19    22   ar
    47    19    49    1
    48    20    22   ar
    49    20    50    1
    50    21    23    1
    51    21    51    1
    52    21    52    1
    53    22    53    1
    54    23    24   ar
    55    24    25   ar
    56    25    26   ar
    57    25    54    1
    58    26    55    1
    59    27    56    1
    60    27    57    1
    61    27    58    1
@<TRIPOS>MOLECULE
66553195
 58 61 0 0 0
SMALL
GASTEIGER

@<TRIPOS>ATOM
      1 S          -0.1616    3.5641    3.6557 S.2     1  UNL1       -0.0926
      2 O           3.9947    1.8338   -0.6210 O.3     1  UNL1       -0.3733
      3 O          -0.5917    6.8127    1.6058 O.3     1  UNL1       -0.4941
      4 N           2.3355   -1.4362   -1.2235 N.ar    1  UNL1       -0.2593
      5 N          -1.5373    2.5691    1.2118 N.4     1  UNL1        0.2308
      6 C           3.9072    1.0510    0.5757 C.3     1  UNL1        0.0704
      7 C           1.4313    0.5057   -0.0051 C.3     1  UNL1        0.0224
      8 C           2.4527    0.9788    1.0713 C.3     1  UNL1       -0.0124
      9 C           4.8008    1.7382    1.6213 C.3     1  UNL1       -0.0237
     10 C           4.6231   -0.2974    0.4268 C.3     1  UNL1       -0.0237
     11 C           1.6850    1.3950   -1.2530 C.3     1  UNL1       -0.0181
     12 C           6.2268    1.3540    1.2306 C.3     1  UNL1       -0.0504
     13 C           6.1087    0.0588    0.4313 C.3     1  UNL1       -0.0504
     14 C          -0.0007    0.8133    0.4991 C.3     1  UNL1       -0.0013
     15 C           3.1485    1.4020   -1.6812 C.3     1  UNL1        0.0492
     16 C           1.4898   -1.0143   -0.2569 C.ar    1  UNL1        0.0478
     17 C          -0.1891    2.3072    0.7222 C.3     1  UNL1       -0.0325
     18 C           0.6938   -1.8586    0.5002 C.ar    1  UNL1       -0.0398
     19 C           0.7710   -3.2240    0.2494 C.ar    1  UNL1       -0.0586
     20 C           2.3834   -2.7700   -1.4391 C.ar    1  UNL1        0.0279
     21 C          -1.7472    3.9952    1.4173 C.3     1  UNL1        0.0021
     22 C           1.6295   -3.6966   -0.7370 C.ar    1  UNL1       -0.0436
     23 C          -0.7708    4.5684    2.4098 C.ar    1  UNL1        0.0756
     24 C          -0.2596    5.8458    2.4790 C.ar    1  UNL1        0.1353
     25 C           0.6441    6.0019    3.5694 C.ar    1  UNL1       -0.0124
     26 C           0.7894    4.8380    4.2919 C.ar    1  UNL1       -0.0203
     27 C          -0.9441    6.4136    0.2736 C.3     1  UNL1        0.0788
     28 H          -1.6719    2.0807    2.0971 H       1  UNL1        0.2017
     29 H          -2.2066    2.2379    0.5170 H       1  UNL1        0.2017
     30 H           2.1628    1.9541    1.4025 H       1  UNL1        0.0302
     31 H           2.4318    0.2502    1.8546 H       1  UNL1        0.0302
     32 H           4.5711    1.3839    2.6045 H       1  UNL1        0.0293
     33 H           4.6591    2.7986    1.6388 H       1  UNL1        0.0293
     34 H           4.3502   -0.7715   -0.4928 H       1  UNL1        0.0293
     35 H           4.3659   -0.9840    1.2061 H       1  UNL1        0.0293
     36 H           1.3901    2.3979   -1.0246 H       1  UNL1        0.0296
     37 H           1.1131    0.9894   -2.0613 H       1  UNL1        0.0296
     38 H           6.8229    1.1982    2.1054 H       1  UNL1        0.0266
     39 H           6.6984    2.1260    0.6592 H       1  UNL1        0.0266
     40 H           6.4591    0.2056   -0.5690 H       1  UNL1        0.0266
     41 H           6.6986   -0.7233    0.8618 H       1  UNL1        0.0266
     42 H          -0.1653    0.2978    1.4221 H       1  UNL1        0.0326
     43 H          -0.7011    0.4874   -0.2413 H       1  UNL1        0.0326
     44 H           3.4315    0.4119   -1.9720 H       1  UNL1        0.0560
     45 H           3.2580    2.0824   -2.4997 H       1  UNL1        0.0560
     46 H           0.5232    2.6510    1.4429 H       1  UNL1        0.0814
     47 H          -0.0440    2.8230   -0.2040 H       1  UNL1        0.0814
     48 H           0.0635   -1.4858    1.2275 H       1  UNL1        0.0636
     49 H           0.1934   -3.8841    0.7931 H       1  UNL1        0.0619
     50 H           3.0208   -3.1195   -2.1716 H       1  UNL1        0.0829
     51 H          -2.7415    4.1498    1.7813 H       1  UNL1        0.0873
     52 H          -1.5983    4.4910    0.4809 H       1  UNL1        0.0873
     53 H           1.7029   -4.7058   -0.9398 H       1  UNL1        0.0633
     54 H           1.1326    6.8834    3.7918 H       1  UNL1        0.0659
     55 H           1.3994    4.7449    5.1190 H       1  UNL1        0.0694
     56 H          -1.1833    7.2802   -0.3067 H       1  UNL1        0.0660
     57 H          -1.7926    5.7626    0.3090 H       1  UNL1        0.0660
     58 H          -0.1193    5.9005   -0.1750 H       1  UNL1        0.0660
@<TRIPOS>UNITY_ATOM_ATTR
5 1
charge 1
@<TRIPOS>BOND
     1     1    23   ar
     2     1    26   ar
     3     2     6    1
     4     2    15    1
     5     3    24    1
     6     3    27    1
     7     4    16   ar
     8     4    20   ar
     9     5    17    1
    10     5    21    1
    11     5    28    1
    12     5    29    1
    13     6     8    1
    14     6     9    1
    15     6    10    1
    16     7     8    1
    17     7    11    1
    18     7    14    1
    19     7    16    1
    20     8    30    1
    21     8    31    1
    22     9    12    1
    23     9    32    1
    24     9    33    1
    25    10    13    1
    26    10    34    1
    27    10    35    1
    28    11    15    1
    29    11    36    1
    30    11    37    1
    31    12    13    1
    32    12    38    1
    33    12    39    1
    34    13    40    1
    35    13    41    1
    36    14    17    1
    37    14    42    1
    38    14    43    1
    39    15    44    1
    40    15    45    1
    41    16    18   ar
    42    17    46    1
    43    17    47    1
    44    18    19   ar
    45    18    48    1
    46    19    22   ar
    47    19    49    1
    48    20    22   ar
    49    20    50    1
    50    21    23    1
    51    21    51    1
    52    21    52    1
    53    22    53    1
    54    23    24   ar
    55    24    25   ar
    56    25    26   ar
    57    25    54    1
    58    26    55    1
    59    27    56    1
    60    27    57    1
    61    27    58    1
@<TRIPOS>MOLECULE
66553195
 58 61 0 0 0
SMALL
GASTEIGER

@<TRIPOS>ATOM
      1 S          -2.8371   -0.2915   -1.4725 S.2     1  UNL1       -0.0926
      2 O           3.9947    1.8338   -0.6210 O.3     1  UNL1       -0.3733
      3 O          -1.5143    2.6920    0.5985 O.3     1  UNL1       -0.4941
      4 N           1.8670   -1.7871    0.7861 N.ar    1  UNL1       -0.2593
      5 N          -1.6350    0.3940    2.2612 N.4     1  UNL1        0.2308
      6 C           3.9072    1.0510    0.5757 C.3     1  UNL1        0.0704
      7 C           1.4313    0.5057   -0.0051 C.3     1  UNL1        0.0224
      8 C           2.4527    0.9788    1.0713 C.3     1  UNL1       -0.0124
      9 C           4.8008    1.7382    1.6213 C.3     1  UNL1       -0.0237
     10 C           4.6231   -0.2974    0.4268 C.3     1  UNL1       -0.0237
     11 C           1.6850    1.3950   -1.2530 C.3     1  UNL1       -0.0181
     12 C           6.2268    1.3540    1.2306 C.3     1  UNL1       -0.0504
     13 C           6.1087    0.0588    0.4313 C.3     1  UNL1       -0.0504
     14 C          -0.0007    0.8133    0.4991 C.3     1  UNL1       -0.0013
     15 C           3.1485    1.4020   -1.6812 C.3     1  UNL1        0.0492
     16 C           1.4898   -1.0143   -0.2569 C.ar    1  UNL1        0.0478
     17 C          -0.2774    0.1027    1.8165 C.3     1  UNL1       -0.0325
     18 C           1.1606   -1.5078   -1.5090 C.ar    1  UNL1       -0.0398
     19 C           1.2221   -2.8832   -1.7031 C.ar    1  UNL1       -0.0586
     20 C           1.9154   -3.1192    0.5598 C.ar    1  UNL1        0.0279
     21 C          -2.6118   -0.0704    1.2863 C.3     1  UNL1        0.0021
     22 C           1.6058   -3.7112   -0.6540 C.ar    1  UNL1       -0.0436
     23 C          -2.4125    0.5762   -0.0588 C.ar    1  UNL1        0.0756
     24 C          -1.9144    1.8272   -0.3501 C.ar    1  UNL1        0.1353
     25 C          -1.8811    2.0764   -1.7525 C.ar    1  UNL1       -0.0124
     26 C          -2.3550    1.0066   -2.4796 C.ar    1  UNL1       -0.0203
     27 C          -1.6504    4.0930    0.3217 C.3     1  UNL1        0.0788
     28 H          -1.7377    1.4015    2.3829 H       1  UNL1        0.2017
     29 H          -1.7999   -0.0900    3.1438 H       1  UNL1        0.2017
     30 H           2.1628    1.9541    1.4025 H       1  UNL1        0.0302
     31 H           2.4318    0.2502    1.8546 H       1  UNL1        0.0302
     32 H           4.5711    1.3839    2.6045 H       1  UNL1        0.0293
     33 H           4.6591    2.7986    1.6388 H       1  UNL1        0.0293
     34 H           4.3502   -0.7715   -0.4928 H       1  UNL1        0.0293
     35 H           4.3659   -0.9840    1.2061 H       1  UNL1        0.0293
     36 H           1.3901    2.3979   -1.0246 H       1  UNL1        0.0296
     37 H           1.1131    0.9894   -2.0613 H       1  UNL1        0.0296
     38 H           6.8229    1.1982    2.1054 H       1  UNL1        0.0266
     39 H           6.6984    2.1260    0.6592 H       1  UNL1        0.0266
     40 H           6.4591    0.2056   -0.5690 H       1  UNL1        0.0266
     41 H           6.6986   -0.7233    0.8618 H       1  UNL1        0.0266
     42 H          -0.7081    0.4828   -0.2325 H       1  UNL1        0.0326
     43 H          -0.0890    1.8682    0.6548 H       1  UNL1        0.0326
     44 H           3.4315    0.4119   -1.9720 H       1  UNL1        0.0560
     45 H           3.2580    2.0824   -2.4997 H       1  UNL1        0.0560
     46 H          -0.1674   -0.9529    1.6803 H       1  UNL1        0.0814
     47 H           0.4168    0.4462    2.5548 H       1  UNL1        0.0814
     48 H           0.8785   -0.8745   -2.2735 H       1  UNL1        0.0636
     49 H           0.9841   -3.2879   -2.6221 H       1  UNL1        0.0619
     50 H           2.2005   -3.7327    1.3391 H       1  UNL1        0.0829
     51 H          -3.5936    0.1645    1.6411 H       1  UNL1        0.0873
     52 H          -2.4870   -1.1266    1.1687 H       1  UNL1        0.0873
     53 H           1.6582   -4.7347   -0.7756 H       1  UNL1        0.0633
     54 H          -1.5418    2.9551   -2.1741 H       1  UNL1        0.0659
     55 H          -2.4126    0.9895   -3.5098 H       1  UNL1        0.0694
     56 H          -1.2952    4.6580    1.1581 H       1  UNL1        0.0660
     57 H          -2.6806    4.3237    0.1470 H       1  UNL1        0.0660
     58 H          -1.0769    4.3424   -0.5465 H       1  UNL1        0.0660
@<TRIPOS>UNITY_ATOM_ATTR
5 1
charge 1
@<TRIPOS>BOND
     1     1    23   ar
     2     1    26   ar
     3     2     6    1
     4     2    15    1
     5     3    24    1
     6     3    27    1
     7     4    16   ar
     8     4    20   ar
     9     5    17    1
    10     5    21    1
    11     5    28    1
    12     5    29    1
    13     6     8    1
    14     6     9    1
    15     6    10    1
    16     7     8    1
    17     7    11    1
    18     7    14    1
    19     7    16    1
    20     8    30    1
    21     8    31    1
    22     9    12    1
    23     9    32    1
    24     9    33    1
    25    10    13    1
    26    10    34    1
    27    10    35    1
    28    11    15    1
    29    11    36    1
    30    11    37    1
    31    12    13    1
    32    12    38    1
    33    12    39    1
    34    13    40    1
    35    13    41    1
    36    14    17    1
    37    14    42    1
    38    14    43    1
    39    15    44    1
    40    15    45    1
    41    16    18   ar
    42    17    46    1
    43    17    47    1
    44    18    19   ar
    45    18    48    1
    46    19    22   ar
    47    19    49    1
    48    20    22   ar
    49    20    50    1
    50    21    23    1
    51    21    51    1
    52    21    52    1
    53    22    53    1
    54    23    24   ar
    55    24    25   ar
    56    25    26   ar
    57    25    54    1
    58    26    55    1
    59    27    56    1
    60    27    57    1
    61    27    58    1
@<TRIPOS>MOLECULE
66553195
 58 61 0 0 0
SMALL
GASTEIGER

@<TRIPOS>ATOM
      1 S          -2.0833   -0.4113   -1.4183 S.2     1  UNL1       -0.0926
      2 O           3.9947    1.8338   -0.6210 O.3     1  UNL1       -0.3733
      3 O          -2.6988    2.8797    0.5132 O.3     1  UNL1       -0.4941
      4 N           1.2206   -1.8141    0.7992 N.ar    1  UNL1       -0.2593
      5 N          -1.6350    0.3940    2.2612 N.4     1  UNL1        0.2308
      6 C           3.9072    1.0510    0.5757 C.3     1  UNL1        0.0704
      7 C           1.4313    0.5057   -0.0051 C.3     1  UNL1        0.0224
      8 C           2.4527    0.9788    1.0713 C.3     1  UNL1       -0.0124
      9 C           4.8008    1.7382    1.6213 C.3     1  UNL1       -0.0237
     10 C           4.6231   -0.2974    0.4268 C.3     1  UNL1       -0.0237
     11 C           1.6850    1.3950   -1.2530 C.3     1  UNL1       -0.0181
     12 C           6.2268    1.3540    1.2306 C.3     1  UNL1       -0.0504
     13 C           6.1087    0.0588    0.4313 C.3     1  UNL1       -0.0504
     14 C          -0.0007    0.8133    0.4991 C.3     1  UNL1       -0.0013
     15 C           3.1485    1.4020   -1.6812 C.3     1  UNL1        0.0492
     16 C           1.4898   -1.0143   -0.2569 C.ar    1  UNL1        0.0478
     17 C          -0.2774    0.1027    1.8165 C.3     1  UNL1       -0.0325
     18 C           1.8067   -1.4807   -1.5225 C.ar    1  UNL1       -0.0398
     19 C           1.8498   -2.8568   -1.7169 C.ar    1  UNL1       -0.0586
     20 C           1.2723   -3.1460    0.5722 C.ar    1  UNL1        0.0279
     21 C          -2.6118   -0.0704    1.2863 C.3     1  UNL1        0.0021
     22 C           1.5787   -3.7121   -0.6547 C.ar    1  UNL1       -0.0436
     23 C          -2.4125    0.5762   -0.0588 C.ar    1  UNL1        0.0756
     24 C          -2.4556    1.9130   -0.3890 C.ar    1  UNL1        0.1353
     25 C          -2.2152    2.1291   -1.7766 C.ar    1  UNL1       -0.0124
     26 C          -1.9976    0.9495   -2.4541 C.ar    1  UNL1       -0.0203
     27 C          -3.5220    2.5465    1.6399 C.3     1  UNL1        0.0788
     28 H          -1.7377    1.4015    2.3829 H       1  UNL1        0.2017
     29 H          -1.7999   -0.0900    3.1438 H       1  UNL1        0.2017
     30 H           2.1628    1.9541    1.4025 H       1  UNL1        0.0302
     31 H           2.4318    0.2502    1.8546 H       1  UNL1        0.0302
     32 H           4.5711    1.3839    2.6045 H       1  UNL1        0.0293
     33 H           4.6591    2.7986    1.6388 H       1  UNL1        0.0293
     34 H           4.3502   -0.7715   -0.4928 H       1  UNL1        0.0293
     35 H           4.3659   -0.9840    1.2061 H       1  UNL1        0.0293
     36 H           1.3901    2.3979   -1.0246 H       1  UNL1        0.0296
     37 H           1.1131    0.9894   -2.0613 H       1  UNL1        0.0296
     38 H           6.8229    1.1982    2.1054 H       1  UNL1        0.0266
     39 H           6.6984    2.1260    0.6592 H       1  UNL1        0.0266
     40 H           6.4591    0.2056   -0.5690 H       1  UNL1        0.0266
     41 H           6.6986   -0.7233    0.8618 H       1  UNL1        0.0266
     42 H          -0.7081    0.4828   -0.2325 H       1  UNL1        0.0326
     43 H          -0.0890    1.8682    0.6548 H       1  UNL1        0.0326
     44 H           3.4315    0.4119   -1.9720 H       1  UNL1        0.0560
     45 H           3.2580    2.0824   -2.4997 H       1  UNL1        0.0560
     46 H          -0.1674   -0.9529    1.6803 H       1  UNL1        0.0814
     47 H           0.4168    0.4462    2.5548 H       1  UNL1        0.0814
     48 H           2.0045   -0.8274   -2.2965 H       1  UNL1        0.0636
     49 H           2.0822   -3.2418   -2.6457 H       1  UNL1        0.0619
     50 H           1.0711   -3.7798    1.3613 H       1  UNL1        0.0829
     51 H          -3.5936    0.1645    1.6411 H       1  UNL1        0.0873
     52 H          -2.4870   -1.1266    1.1687 H       1  UNL1        0.0873
     53 H           1.6048   -4.7366   -0.7764 H       1  UNL1        0.0633
     54 H          -2.2052    3.0601   -2.2219 H       1  UNL1        0.0659
     55 H          -1.8057    0.8927   -3.4664 H       1  UNL1        0.0694
     56 H          -3.6297    3.4051    2.2693 H       1  UNL1        0.0660
     57 H          -3.0646    1.7533    2.1936 H       1  UNL1        0.0660
     58 H          -4.4857    2.2325    1.2970 H       1  UNL1        0.0660
@<TRIPOS>UNITY_ATOM_ATTR
5 1
charge 1
@<TRIPOS>BOND
     1     1    23   ar
     2     1    26   ar
     3     2     6    1
     4     2    15    1
     5     3    24    1
     6     3    27    1
     7     4    16   ar
     8     4    20   ar
     9     5    17    1
    10     5    21    1
    11     5    28    1
    12     5    29    1
    13     6     8    1
    14     6     9    1
    15     6    10    1
    16     7     8    1
    17     7    11    1
    18     7    14    1
    19     7    16    1
    20     8    30    1
    21     8    31    1
    22     9    12    1
    23     9    32    1
    24     9    33    1
    25    10    13    1
    26    10    34    1
    27    10    35    1
    28    11    15    1
    29    11    36    1
    30    11    37    1
    31    12    13    1
    32    12    38    1
    33    12    39    1
    34    13    40    1
    35    13    41    1
    36    14    17    1
    37    14    42    1
    38    14    43    1
    39    15    44    1
    40    15    45    1
    41    16    18   ar
    42    17    46    1
    43    17    47    1
    44    18    19   ar
    45    18    48    1
    46    19    22   ar
    47    19    49    1
    48    20    22   ar
    49    20    50    1
    50    21    23    1
    51    21    51    1
    52    21    52    1
    53    22    53    1
    54    23    24   ar
    55    24    25   ar
    56    25    26   ar
    57    25    54    1
    58    26    55    1
    59    27    56    1
    60    27    57    1
    61    27    58    1
@<TRIPOS>MOLECULE
66553195
 58 61 0 0 0
SMALL
GASTEIGER

@<TRIPOS>ATOM
      1 S          -4.1619    2.5260    2.3801 S.2     1  UNL1       -0.0926
      2 O           3.9947    1.8338   -0.6210 O.3     1  UNL1       -0.3733
      3 O          -5.0995    2.7438   -1.3634 O.3     1  UNL1       -0.4941
      4 N           1.1728   -1.4348   -1.5019 N.ar    1  UNL1       -0.2593
      5 N          -2.3798    0.6689   -0.0216 N.4     1  UNL1        0.2308
      6 C           3.9072    1.0510    0.5757 C.3     1  UNL1        0.0704
      7 C           1.4313    0.5057   -0.0051 C.3     1  UNL1        0.0224
      8 C           2.4527    0.9788    1.0713 C.3     1  UNL1       -0.0124
      9 C           4.8008    1.7382    1.6213 C.3     1  UNL1       -0.0237
     10 C           4.6231   -0.2974    0.4268 C.3     1  UNL1       -0.0237
     11 C           1.6850    1.3950   -1.2530 C.3     1  UNL1       -0.0181
     12 C           6.2268    1.3540    1.2306 C.3     1  UNL1       -0.0504
     13 C           6.1087    0.0588    0.4313 C.3     1  UNL1       -0.0504
     14 C          -0.0007    0.8133    0.4991 C.3     1  UNL1       -0.0013
     15 C           3.1485    1.4020   -1.6812 C.3     1  UNL1        0.0492
     16 C           1.4898   -1.0143   -0.2569 C.ar    1  UNL1        0.0478
     17 C          -1.0428    0.3538   -0.5107 C.3     1  UNL1       -0.0325
     18 C           1.8563   -1.8599    0.7777 C.ar    1  UNL1       -0.0398
     19 C           1.9006   -3.2250    0.5177 C.ar    1  UNL1       -0.0586
     20 C           1.2269   -2.7685   -1.7172 C.ar    1  UNL1        0.0279
     21 C          -2.5388    2.1040    0.1669 C.3     1  UNL1        0.0021
     22 C           1.5815   -3.6961   -0.7510 C.ar    1  UNL1       -0.0436
     23 C          -3.9076    2.4526    0.6884 C.ar    1  UNL1        0.0756
     24 C          -5.0542    2.7389   -0.0197 C.ar    1  UNL1        0.1353
     25 C          -6.1558    3.0222    0.8382 C.ar    1  UNL1       -0.0124
     26 C          -5.8095    2.9418    2.1691 C.ar    1  UNL1       -0.0203
     27 C          -6.3425    2.3939   -1.9885 C.3     1  UNL1        0.0788
     28 H          -2.5293    0.1964    0.8698 H       1  UNL1        0.2017
     29 H          -3.0620    0.3531   -0.7110 H       1  UNL1        0.2017
     30 H           2.1628    1.9541    1.4025 H       1  UNL1        0.0302
     31 H           2.4318    0.2502    1.8546 H       1  UNL1        0.0302
     32 H           4.5711    1.3839    2.6045 H       1  UNL1        0.0293
     33 H           4.6591    2.7986    1.6388 H       1  UNL1        0.0293
     34 H           4.3502   -0.7715   -0.4928 H       1  UNL1        0.0293
     35 H           4.3659   -0.9840    1.2061 H       1  UNL1        0.0293
     36 H           1.3901    2.3979   -1.0246 H       1  UNL1        0.0296
     37 H           1.1131    0.9894   -2.0613 H       1  UNL1        0.0296
     38 H           6.8229    1.1982    2.1054 H       1  UNL1        0.0266
     39 H           6.6984    2.1260    0.6592 H       1  UNL1        0.0266
     40 H           6.4591    0.2056   -0.5690 H       1  UNL1        0.0266
     41 H           6.6986   -0.7233    0.8618 H       1  UNL1        0.0266
     42 H          -0.1000    1.8680    0.6496 H       1  UNL1        0.0326
     43 H          -0.1599    0.2879    1.4175 H       1  UNL1        0.0326
     44 H           3.4315    0.4119   -1.9720 H       1  UNL1        0.0560
     45 H           3.2580    2.0824   -2.4997 H       1  UNL1        0.0560
     46 H          -0.8788    0.8537   -1.4425 H       1  UNL1        0.0814
     47 H          -0.9581   -0.7040   -0.6482 H       1  UNL1        0.0814
     48 H           2.0890   -1.4881    1.7119 H       1  UNL1        0.0636
     49 H           2.1692   -3.8860    1.2633 H       1  UNL1        0.0619
     50 H           0.9896   -3.1170   -2.6591 H       1  UNL1        0.0829
     51 H          -2.3909    2.5950   -0.7723 H       1  UNL1        0.0873
     52 H          -1.8169    2.4261    0.8880 H       1  UNL1        0.0873
     53 H           1.6078   -4.7050   -0.9662 H       1  UNL1        0.0633
     54 H          -7.1023    3.2597    0.5020 H       1  UNL1        0.0659
     55 H          -6.4656    3.1120    2.9472 H       1  UNL1        0.0694
     56 H          -6.2323    2.4399   -3.0518 H       1  UNL1        0.0660
     57 H          -7.1030    3.0800   -1.6787 H       1  UNL1        0.0660
     58 H          -6.6192    1.4011   -1.7012 H       1  UNL1        0.0660
@<TRIPOS>UNITY_ATOM_ATTR
5 1
charge 1
@<TRIPOS>BOND
     1     1    23   ar
     2     1    26   ar
     3     2     6    1
     4     2    15    1
     5     3    24    1
     6     3    27    1
     7     4    16   ar
     8     4    20   ar
     9     5    17    1
    10     5    21    1
    11     5    28    1
    12     5    29    1
    13     6     8    1
    14     6     9    1
    15     6    10    1
    16     7     8    1
    17     7    11    1
    18     7    14    1
    19     7    16    1
    20     8    30    1
    21     8    31    1
    22     9    12    1
    23     9    32    1
    24     9    33    1
    25    10    13    1
    26    10    34    1
    27    10    35    1
    28    11    15    1
    29    11    36    1
    30    11    37    1
    31    12    13    1
    32    12    38    1
    33    12    39    1
    34    13    40    1
    35    13    41    1
    36    14    17    1
    37    14    42    1
    38    14    43    1
    39    15    44    1
    40    15    45    1
    41    16    18   ar
    42    17    46    1
    43    17    47    1
    44    18    19   ar
    45    18    48    1
    46    19    22   ar
    47    19    49    1
    48    20    22   ar
    49    20    50    1
    50    21    23    1
    51    21    51    1
    52    21    52    1
    53    22    53    1
    54    23    24   ar
    55    24    25   ar
    56    25    26   ar
    57    25    54    1
    58    26    55    1
    59    27    56    1
    60    27    57    1
    61    27    58    1
@<TRIPOS>MOLECULE
66553195
 58 61 0 0 0
SMALL
GASTEIGER

@<TRIPOS>ATOM
      1 S          -4.3933   -1.3045    4.2350 S.2     1  UNL1       -0.0926
      2 O           3.9947    1.8338   -0.6210 O.3     1  UNL1       -0.3733
      3 O          -3.2699    2.3935    4.1835 O.3     1  UNL1       -0.4941
      4 N           0.3359   -1.6114   -0.6301 N.ar    1  UNL1       -0.2593
      5 N          -1.6350    0.3940    2.2612 N.4     1  UNL1        0.2308
      6 C           3.9072    1.0510    0.5757 C.3     1  UNL1        0.0704
      7 C           1.4313    0.5057   -0.0051 C.3     1  UNL1        0.0224
      8 C           2.4527    0.9788    1.0713 C.3     1  UNL1       -0.0124
      9 C           4.8008    1.7382    1.6213 C.3     1  UNL1       -0.0237
     10 C           4.6231   -0.2974    0.4268 C.3     1  UNL1       -0.0237
     11 C           1.6850    1.3950   -1.2530 C.3     1  UNL1       -0.0181
     12 C           6.2268    1.3540    1.2306 C.3     1  UNL1       -0.0504
     13 C           6.1087    0.0588    0.4313 C.3     1  UNL1       -0.0504
     14 C          -0.0007    0.8133    0.4991 C.3     1  UNL1       -0.0013
     15 C           3.1485    1.4020   -1.6812 C.3     1  UNL1        0.0492
     16 C           1.4898   -1.0143   -0.2569 C.ar    1  UNL1        0.0478
     17 C          -0.2774    0.1027    1.8165 C.3     1  UNL1       -0.0325
     18 C           2.6922   -1.6832   -0.0944 C.ar    1  UNL1       -0.0398
     19 C           2.7117   -3.0533   -0.3305 C.ar    1  UNL1       -0.0586
     20 C           0.3934   -2.9441   -0.8507 C.ar    1  UNL1        0.0279
     21 C          -1.9180   -0.2623    3.5298 C.3     1  UNL1        0.0021
     22 C           1.5446   -3.7033   -0.7163 C.ar    1  UNL1       -0.0436
     23 C          -3.3217    0.0104    4.0014 C.ar    1  UNL1        0.0756
     24 C          -3.9154    1.2191    4.2919 C.ar    1  UNL1        0.1353
     25 C          -5.2679    1.0634    4.7118 C.ar    1  UNL1       -0.0124
     26 C          -5.6564   -0.2582    4.7264 C.ar    1  UNL1       -0.0203
     27 C          -2.2333    2.4944    3.1970 C.3     1  UNL1        0.0788
     28 H          -2.2953    0.0614    1.5586 H       1  UNL1        0.2017
     29 H          -1.7274    1.4019    2.3879 H       1  UNL1        0.2017
     30 H           2.1628    1.9541    1.4025 H       1  UNL1        0.0302
     31 H           2.4318    0.2502    1.8546 H       1  UNL1        0.0302
     32 H           4.5711    1.3839    2.6045 H       1  UNL1        0.0293
     33 H           4.6591    2.7986    1.6388 H       1  UNL1        0.0293
     34 H           4.3502   -0.7715   -0.4928 H       1  UNL1        0.0293
     35 H           4.3659   -0.9840    1.2061 H       1  UNL1        0.0293
     36 H           1.3901    2.3979   -1.0246 H       1  UNL1        0.0296
     37 H           1.1131    0.9894   -2.0613 H       1  UNL1        0.0296
     38 H           6.8229    1.1982    2.1054 H       1  UNL1        0.0266
     39 H           6.6984    2.1260    0.6592 H       1  UNL1        0.0266
     40 H           6.4591    0.2056   -0.5690 H       1  UNL1        0.0266
     41 H           6.6986   -0.7233    0.8618 H       1  UNL1        0.0266
     42 H          -0.7081    0.4828   -0.2325 H       1  UNL1        0.0326
     43 H          -0.0890    1.8682    0.6548 H       1  UNL1        0.0326
     44 H           3.4315    0.4119   -1.9720 H       1  UNL1        0.0560
     45 H           3.2580    2.0824   -2.4997 H       1  UNL1        0.0560
     46 H          -0.1674   -0.9529    1.6803 H       1  UNL1        0.0814
     47 H           0.4168    0.4462    2.5548 H       1  UNL1        0.0814
     48 H           3.5465   -1.1804    0.1929 H       1  UNL1        0.0636
     49 H           3.5888   -3.5857   -0.2197 H       1  UNL1        0.0619
     50 H          -0.4734   -3.4255   -1.1367 H       1  UNL1        0.0829
     51 H          -1.2296    0.0966    4.2663 H       1  UNL1        0.0873
     52 H          -1.8146   -1.3178    3.3878 H       1  UNL1        0.0873
     53 H           1.5362   -4.7193   -0.8968 H       1  UNL1        0.0633
     54 H          -5.8842    1.8485    4.9743 H       1  UNL1        0.0659
     55 H          -6.5978   -0.5797    5.0011 H       1  UNL1        0.0694
     56 H          -1.8105    3.4770    3.2231 H       1  UNL1        0.0660
     57 H          -2.6449    2.3089    2.2268 H       1  UNL1        0.0660
     58 H          -1.4713    1.7727    3.4051 H       1  UNL1        0.0660
@<TRIPOS>UNITY_ATOM_ATTR
5 1
charge 1
@<TRIPOS>BOND
     1     1    23   ar
     2     1    26   ar
     3     2     6    1
     4     2    15    1
     5     3    24    1
     6     3    27    1
     7     4    16   ar
     8     4    20   ar
     9     5    17    1
    10     5    21    1
    11     5    28    1
    12     5    29    1
    13     6     8    1
    14     6     9    1
    15     6    10    1
    16     7     8    1
    17     7    11    1
    18     7    14    1
    19     7    16    1
    20     8    30    1
    21     8    31    1
    22     9    12    1
    23     9    32    1
    24     9    33    1
    25    10    13    1
    26    10    34    1
    27    10    35    1
    28    11    15    1
    29    11    36    1
    30    11    37    1
    31    12    13    1
    32    12    38    1
    33    12    39    1
    34    13    40    1
    35    13    41    1
    36    14    17    1
    37    14    42    1
    38    14    43    1
    39    15    44    1
    40    15    45    1
    41    16    18   ar
    42    17    46    1
    43    17    47    1
    44    18    19   ar
    45    18    48    1
    46    19    22   ar
    47    19    49    1
    48    20    22   ar
    49    20    50    1
    50    21    23    1
    51    21    51    1
    52    21    52    1
    53    22    53    1
    54    23    24   ar
    55    24    25   ar
    56    25    26   ar
    57    25    54    1
    58    26    55    1
    59    27    56    1
    60    27    57    1
    61    27    58    1
@<TRIPOS>MOLECULE
66553195
 58 61 0 0 0
SMALL
GASTEIGER

@<TRIPOS>ATOM
      1 S          -4.0467    3.2588    2.1926 S.2     1  UNL1       -0.0926
      2 O           3.9947    1.8338   -0.6210 O.3     1  UNL1       -0.3733
      3 O          -5.2808    1.5922   -1.0693 O.3     1  UNL1       -0.4941
      4 N           1.2206   -1.8141    0.7992 N.ar    1  UNL1       -0.2593
      5 N          -2.3798    0.6689   -0.0216 N.4     1  UNL1        0.2308
      6 C           3.9072    1.0510    0.5757 C.3     1  UNL1        0.0704
      7 C           1.4313    0.5057   -0.0051 C.3     1  UNL1        0.0224
      8 C           2.4527    0.9788    1.0713 C.3     1  UNL1       -0.0124
      9 C           4.8008    1.7382    1.6213 C.3     1  UNL1       -0.0237
     10 C           4.6231   -0.2974    0.4268 C.3     1  UNL1       -0.0237
     11 C           1.6850    1.3950   -1.2530 C.3     1  UNL1       -0.0181
     12 C           6.2268    1.3540    1.2306 C.3     1  UNL1       -0.0504
     13 C           6.1087    0.0588    0.4313 C.3     1  UNL1       -0.0504
     14 C          -0.0007    0.8133    0.4991 C.3     1  UNL1       -0.0013
     15 C           3.1485    1.4020   -1.6812 C.3     1  UNL1        0.0492
     16 C           1.4898   -1.0143   -0.2569 C.ar    1  UNL1        0.0478
     17 C          -1.0428    0.3538   -0.5107 C.3     1  UNL1       -0.0325
     18 C           1.8067   -1.4807   -1.5225 C.ar    1  UNL1       -0.0398
     19 C           1.8498   -2.8568   -1.7169 C.ar    1  UNL1       -0.0586
     20 C           1.2723   -3.1460    0.5722 C.ar    1  UNL1        0.0279
     21 C          -2.5388    2.1040    0.1669 C.3     1  UNL1        0.0021
     22 C           1.5787   -3.7121   -0.6547 C.ar    1  UNL1       -0.0436
     23 C          -3.9076    2.4526    0.6884 C.ar    1  UNL1        0.0756
     24 C          -5.1370    2.2128    0.1147 C.ar    1  UNL1        0.1353
     25 C          -6.2070    2.6974    0.9210 C.ar    1  UNL1       -0.0124
     26 C          -5.7550    3.2892    2.0799 C.ar    1  UNL1       -0.0203
     27 C          -4.2250    1.7381   -2.0295 C.3     1  UNL1        0.0788
     28 H          -2.5293    0.1964    0.8698 H       1  UNL1        0.2017
     29 H          -3.0620    0.3531   -0.7110 H       1  UNL1        0.2017
     30 H           2.1628    1.9541    1.4025 H       1  UNL1        0.0302
     31 H           2.4318    0.2502    1.8546 H       1  UNL1        0.0302
     32 H           4.5711    1.3839    2.6045 H       1  UNL1        0.0293
     33 H           4.6591    2.7986    1.6388 H       1  UNL1        0.0293
     34 H           4.3502   -0.7715   -0.4928 H       1  UNL1        0.0293
     35 H           4.3659   -0.9840    1.2061 H       1  UNL1        0.0293
     36 H           1.3901    2.3979   -1.0246 H       1  UNL1        0.0296
     37 H           1.1131    0.9894   -2.0613 H       1  UNL1        0.0296
     38 H           6.8229    1.1982    2.1054 H       1  UNL1        0.0266
     39 H           6.6984    2.1260    0.6592 H       1  UNL1        0.0266
     40 H           6.4591    0.2056   -0.5690 H       1  UNL1        0.0266
     41 H           6.6986   -0.7233    0.8618 H       1  UNL1        0.0266
     42 H          -0.1000    1.8680    0.6496 H       1  UNL1        0.0326
     43 H          -0.1599    0.2879    1.4175 H       1  UNL1        0.0326
     44 H           3.4315    0.4119   -1.9720 H       1  UNL1        0.0560
     45 H           3.2580    2.0824   -2.4997 H       1  UNL1        0.0560
     46 H          -0.8788    0.8537   -1.4425 H       1  UNL1        0.0814
     47 H          -0.9581   -0.7040   -0.6482 H       1  UNL1        0.0814
     48 H           2.0045   -0.8274   -2.2965 H       1  UNL1        0.0636
     49 H           2.0822   -3.2418   -2.6457 H       1  UNL1        0.0619
     50 H           1.0711   -3.7798    1.3613 H       1  UNL1        0.0829
     51 H          -2.3909    2.5950   -0.7723 H       1  UNL1        0.0873
     52 H          -1.8169    2.4261    0.8880 H       1  UNL1        0.0873
     53 H           1.6048   -4.7366   -0.7764 H       1  UNL1        0.0633
     54 H          -7.2038    2.6147    0.6666 H       1  UNL1        0.0659
     55 H          -6.3730    3.7021    2.7958 H       1  UNL1        0.0694
     56 H          -4.4731    1.1951   -2.9175 H       1  UNL1        0.0660
     57 H          -3.3143    1.3543   -1.6194 H       1  UNL1        0.0660
     58 H          -4.1003    2.7737   -2.2679 H       1  UNL1        0.0660
@<TRIPOS>UNITY_ATOM_ATTR
5 1
charge 1
@<TRIPOS>BOND
     1     1    23   ar
     2     1    26   ar
     3     2     6    1
     4     2    15    1
     5     3    24    1
     6     3    27    1
     7     4    16   ar
     8     4    20   ar
     9     5    17    1
    10     5    21    1
    11     5    28    1
    12     5    29    1
    13     6     8    1
    14     6     9    1
    15     6    10    1
    16     7     8    1
    17     7    11    1
    18     7    14    1
    19     7    16    1
    20     8    30    1
    21     8    31    1
    22     9    12    1
    23     9    32    1
    24     9    33    1
    25    10    13    1
    26    10    34    1
    27    10    35    1
    28    11    15    1
    29    11    36    1
    30    11    37    1
    31    12    13    1
    32    12    38    1
    33    12    39    1
    34    13    40    1
    35    13    41    1
    36    14    17    1
    37    14    42    1
    38    14    43    1
    39    15    44    1
    40    15    45    1
    41    16    18   ar
    42    17    46    1
    43    17    47    1
    44    18    19   ar
    45    18    48    1
    46    19    22   ar
    47    19    49    1
    48    20    22   ar
    49    20    50    1
    50    21    23    1
    51    21    51    1
    52    21    52    1
    53    22    53    1
    54    23    24   ar
    55    24    25   ar
    56    25    26   ar
    57    25    54    1
    58    26    55    1
    59    27    56    1
    60    27    57    1
    61    27    58    1
@<TRIPOS>MOLECULE
66553195
 58 61 0 0 0
SMALL
GASTEIGER

@<TRIPOS>ATOM
      1 S          -2.9050    5.6921   -0.4510 S.2     1  UNL1       -0.0926
      2 O           3.9947    1.8338   -0.6210 O.3     1  UNL1       -0.3733
      3 O           0.6785    4.2439   -0.4163 O.3     1  UNL1       -0.4941
      4 N           1.8670   -1.7871    0.7861 N.ar    1  UNL1       -0.2593
      5 N          -1.5373    2.5691    1.2118 N.4     1  UNL1        0.2308
      6 C           3.9072    1.0510    0.5757 C.3     1  UNL1        0.0704
      7 C           1.4313    0.5057   -0.0051 C.3     1  UNL1        0.0224
      8 C           2.4527    0.9788    1.0713 C.3     1  UNL1       -0.0124
      9 C           4.8008    1.7382    1.6213 C.3     1  UNL1       -0.0237
     10 C           4.6231   -0.2974    0.4268 C.3     1  UNL1       -0.0237
     11 C           1.6850    1.3950   -1.2530 C.3     1  UNL1       -0.0181
     12 C           6.2268    1.3540    1.2306 C.3     1  UNL1       -0.0504
     13 C           6.1087    0.0588    0.4313 C.3     1  UNL1       -0.0504
     14 C          -0.0007    0.8133    0.4991 C.3     1  UNL1       -0.0013
     15 C           3.1485    1.4020   -1.6812 C.3     1  UNL1        0.0492
     16 C           1.4898   -1.0143   -0.2569 C.ar    1  UNL1        0.0478
     17 C          -0.1891    2.3072    0.7222 C.3     1  UNL1       -0.0325
     18 C           1.1606   -1.5078   -1.5090 C.ar    1  UNL1       -0.0398
     19 C           1.2221   -2.8832   -1.7031 C.ar    1  UNL1       -0.0586
     20 C           1.9154   -3.1192    0.5598 C.ar    1  UNL1        0.0279
     21 C          -1.7472    3.9952    1.4173 C.3     1  UNL1        0.0021
     22 C           1.6058   -3.7112   -0.6540 C.ar    1  UNL1       -0.0436
     23 C          -1.5849    4.7756    0.1400 C.ar    1  UNL1        0.0756
     24 C          -0.4794    4.8759   -0.6760 C.ar    1  UNL1        0.1353
     25 C          -0.7197    5.7162   -1.8012 C.ar    1  UNL1       -0.0124
     26 C          -1.9993    6.2263   -1.8024 C.ar    1  UNL1       -0.0203
     27 C           1.7641    4.4408   -1.3333 C.3     1  UNL1        0.0788
     28 H          -1.6719    2.0807    2.0971 H       1  UNL1        0.2017
     29 H          -2.2066    2.2379    0.5170 H       1  UNL1        0.2017
     30 H           2.1628    1.9541    1.4025 H       1  UNL1        0.0302
     31 H           2.4318    0.2502    1.8546 H       1  UNL1        0.0302
     32 H           4.5711    1.3839    2.6045 H       1  UNL1        0.0293
     33 H           4.6591    2.7986    1.6388 H       1  UNL1        0.0293
     34 H           4.3502   -0.7715   -0.4928 H       1  UNL1        0.0293
     35 H           4.3659   -0.9840    1.2061 H       1  UNL1        0.0293
     36 H           1.3901    2.3979   -1.0246 H       1  UNL1        0.0296
     37 H           1.1131    0.9894   -2.0613 H       1  UNL1        0.0296
     38 H           6.8229    1.1982    2.1054 H       1  UNL1        0.0266
     39 H           6.6984    2.1260    0.6592 H       1  UNL1        0.0266
     40 H           6.4591    0.2056   -0.5690 H       1  UNL1        0.0266
     41 H           6.6986   -0.7233    0.8618 H       1  UNL1        0.0266
     42 H          -0.1653    0.2978    1.4221 H       1  UNL1        0.0326
     43 H          -0.7011    0.4874   -0.2413 H       1  UNL1        0.0326
     44 H           3.4315    0.4119   -1.9720 H       1  UNL1        0.0560
     45 H           3.2580    2.0824   -2.4997 H       1  UNL1        0.0560
     46 H           0.5232    2.6510    1.4429 H       1  UNL1        0.0814
     47 H          -0.0440    2.8230   -0.2040 H       1  UNL1        0.0814
     48 H           0.8785   -0.8745   -2.2735 H       1  UNL1        0.0636
     49 H           0.9841   -3.2879   -2.6221 H       1  UNL1        0.0619
     50 H           2.2005   -3.7327    1.3391 H       1  UNL1        0.0829
     51 H          -1.0351    4.3503    2.1327 H       1  UNL1        0.0873
     52 H          -2.7484    4.1363    1.7676 H       1  UNL1        0.0873
     53 H           1.6582   -4.7347   -0.7756 H       1  UNL1        0.0633
     54 H          -0.0175    5.9190   -2.5298 H       1  UNL1        0.0659
     55 H          -2.3686    6.8561   -2.5317 H       1  UNL1        0.0694
     56 H           2.6151    3.8820   -1.0037 H       1  UNL1        0.0660
     57 H           2.0136    5.4806   -1.3727 H       1  UNL1        0.0660
     58 H           1.4734    4.1065   -2.3073 H       1  UNL1        0.0660
@<TRIPOS>UNITY_ATOM_ATTR
5 1
charge 1
@<TRIPOS>BOND
     1     1    23   ar
     2     1    26   ar
     3     2     6    1
     4     2    15    1
     5     3    24    1
     6     3    27    1
     7     4    16   ar
     8     4    20   ar
     9     5    17    1
    10     5    21    1
    11     5    28    1
    12     5    29    1
    13     6     8    1
    14     6     9    1
    15     6    10    1
    16     7     8    1
    17     7    11    1
    18     7    14    1
    19     7    16    1
    20     8    30    1
    21     8    31    1
    22     9    12    1
    23     9    32    1
    24     9    33    1
    25    10    13    1
    26    10    34    1
    27    10    35    1
    28    11    15    1
    29    11    36    1
    30    11    37    1
    31    12    13    1
    32    12    38    1
    33    12    39    1
    34    13    40    1
    35    13    41    1
    36    14    17    1
    37    14    42    1
    38    14    43    1
    39    15    44    1
    40    15    45    1
    41    16    18   ar
    42    17    46    1
    43    17    47    1
    44    18    19   ar
    45    18    48    1
    46    19    22   ar
    47    19    49    1
    48    20    22   ar
    49    20    50    1
    50    21    23    1
    51    21    51    1
    52    21    52    1
    53    22    53    1
    54    23    24   ar
    55    24    25   ar
    56    25    26   ar
    57    25    54    1
    58    26    55    1
    59    27    56    1
    60    27    57    1
    61    27    58    1
@<TRIPOS>MOLECULE
66553195
 58 61 0 0 0
SMALL
GASTEIGER

@<TRIPOS>ATOM
      1 S          -0.0909    4.7092   -0.6939 S.2     1  UNL1       -0.0926
      2 O           3.9947    1.8338   -0.6210 O.3     1  UNL1       -0.3733
      3 O          -3.7441    5.7867   -0.0358 O.3     1  UNL1       -0.4941
      4 N           1.8670   -1.7871    0.7861 N.ar    1  UNL1       -0.2593
      5 N          -1.5373    2.5691    1.2118 N.4     1  UNL1        0.2308
      6 C           3.9072    1.0510    0.5757 C.3     1  UNL1        0.0704
      7 C           1.4313    0.5057   -0.0051 C.3     1  UNL1        0.0224
      8 C           2.4527    0.9788    1.0713 C.3     1  UNL1       -0.0124
      9 C           4.8008    1.7382    1.6213 C.3     1  UNL1       -0.0237
     10 C           4.6231   -0.2974    0.4268 C.3     1  UNL1       -0.0237
     11 C           1.6850    1.3950   -1.2530 C.3     1  UNL1       -0.0181
     12 C           6.2268    1.3540    1.2306 C.3     1  UNL1       -0.0504
     13 C           6.1087    0.0588    0.4313 C.3     1  UNL1       -0.0504
     14 C          -0.0007    0.8133    0.4991 C.3     1  UNL1       -0.0013
     15 C           3.1485    1.4020   -1.6812 C.3     1  UNL1        0.0492
     16 C           1.4898   -1.0143   -0.2569 C.ar    1  UNL1        0.0478
     17 C          -0.1891    2.3072    0.7222 C.3     1  UNL1       -0.0325
     18 C           1.1606   -1.5078   -1.5090 C.ar    1  UNL1       -0.0398
     19 C           1.2221   -2.8832   -1.7031 C.ar    1  UNL1       -0.0586
     20 C           1.9154   -3.1192    0.5598 C.ar    1  UNL1        0.0279
     21 C          -1.7472    3.9952    1.4173 C.3     1  UNL1        0.0021
     22 C           1.6058   -3.7112   -0.6540 C.ar    1  UNL1       -0.0436
     23 C          -1.5849    4.7756    0.1400 C.ar    1  UNL1        0.0756
     24 C          -2.5000    5.5809   -0.5021 C.ar    1  UNL1        0.1353
     25 C          -1.9672    6.1507   -1.6943 C.ar    1  UNL1       -0.0124
     26 C          -0.6655    5.7594   -1.9182 C.ar    1  UNL1       -0.0203
     27 C          -4.7814    6.0357   -0.9950 C.3     1  UNL1        0.0788
     28 H          -1.6719    2.0807    2.0971 H       1  UNL1        0.2017
     29 H          -2.2066    2.2379    0.5170 H       1  UNL1        0.2017
     30 H           2.1628    1.9541    1.4025 H       1  UNL1        0.0302
     31 H           2.4318    0.2502    1.8546 H       1  UNL1        0.0302
     32 H           4.5711    1.3839    2.6045 H       1  UNL1        0.0293
     33 H           4.6591    2.7986    1.6388 H       1  UNL1        0.0293
     34 H           4.3502   -0.7715   -0.4928 H       1  UNL1        0.0293
     35 H           4.3659   -0.9840    1.2061 H       1  UNL1        0.0293
     36 H           1.3901    2.3979   -1.0246 H       1  UNL1        0.0296
     37 H           1.1131    0.9894   -2.0613 H       1  UNL1        0.0296
     38 H           6.8229    1.1982    2.1054 H       1  UNL1        0.0266
     39 H           6.6984    2.1260    0.6592 H       1  UNL1        0.0266
     40 H           6.4591    0.2056   -0.5690 H       1  UNL1        0.0266
     41 H           6.6986   -0.7233    0.8618 H       1  UNL1        0.0266
     42 H          -0.1653    0.2978    1.4221 H       1  UNL1        0.0326
     43 H          -0.7011    0.4874   -0.2413 H       1  UNL1        0.0326
     44 H           3.4315    0.4119   -1.9720 H       1  UNL1        0.0560
     45 H           3.2580    2.0824   -2.4997 H       1  UNL1        0.0560
     46 H           0.5232    2.6510    1.4429 H       1  UNL1        0.0814
     47 H          -0.0440    2.8230   -0.2040 H       1  UNL1        0.0814
     48 H           0.8785   -0.8745   -2.2735 H       1  UNL1        0.0636
     49 H           0.9841   -3.2879   -2.6221 H       1  UNL1        0.0619
     50 H           2.2005   -3.7327    1.3391 H       1  UNL1        0.0829
     51 H          -1.0351    4.3503    2.1327 H       1  UNL1        0.0873
     52 H          -2.7484    4.1363    1.7676 H       1  UNL1        0.0873
     53 H           1.6582   -4.7347   -0.7756 H       1  UNL1        0.0633
     54 H          -2.4946    6.7825   -2.3171 H       1  UNL1        0.0659
     55 H          -0.1030    6.0632   -2.7282 H       1  UNL1        0.0694
     56 H          -5.7111    6.1803   -0.4854 H       1  UNL1        0.0660
     57 H          -4.8637    5.1988   -1.6567 H       1  UNL1        0.0660
     58 H          -4.5432    6.9137   -1.5582 H       1  UNL1        0.0660
@<TRIPOS>UNITY_ATOM_ATTR
5 1
charge 1
@<TRIPOS>BOND
     1     1    23   ar
     2     1    26   ar
     3     2     6    1
     4     2    15    1
     5     3    24    1
     6     3    27    1
     7     4    16   ar
     8     4    20   ar
     9     5    17    1
    10     5    21    1
    11     5    28    1
    12     5    29    1
    13     6     8    1
    14     6     9    1
    15     6    10    1
    16     7     8    1
    17     7    11    1
    18     7    14    1
    19     7    16    1
    20     8    30    1
    21     8    31    1
    22     9    12    1
    23     9    32    1
    24     9    33    1
    25    10    13    1
    26    10    34    1
    27    10    35    1
    28    11    15    1
    29    11    36    1
    30    11    37    1
    31    12    13    1
    32    12    38    1
    33    12    39    1
    34    13    40    1
    35    13    41    1
    36    14    17    1
    37    14    42    1
    38    14    43    1
    39    15    44    1
    40    15    45    1
    41    16    18   ar
    42    17    46    1
    43    17    47    1
    44    18    19   ar
    45    18    48    1
    46    19    22   ar
    47    19    49    1
    48    20    22   ar
    49    20    50    1
    50    21    23    1
    51    21    51    1
    52    21    52    1
    53    22    53    1
    54    23    24   ar
    55    24    25   ar
    56    25    26   ar
    57    25    54    1
    58    26    55    1
    59    27    56    1
    60    27    57    1
    61    27    58    1
@<TRIPOS>MOLECULE
66553195
 58 61 0 0 0
SMALL
GASTEIGER

@<TRIPOS>ATOM
      1 S          -1.4388    1.5459    5.5820 S.2     1  UNL1       -0.0926
      2 O           3.9947    1.8338   -0.6210 O.3     1  UNL1       -0.3733
      3 O           0.7949   -1.3702    4.3791 O.3     1  UNL1       -0.4941
      4 N           1.7905   -1.4089   -1.5144 N.ar    1  UNL1       -0.2593
      5 N          -1.6350    0.3940    2.2612 N.4     1  UNL1        0.2308
      6 C           3.9072    1.0510    0.5757 C.3     1  UNL1        0.0704
      7 C           1.4313    0.5057   -0.0051 C.3     1  UNL1        0.0224
      8 C           2.4527    0.9788    1.0713 C.3     1  UNL1       -0.0124
      9 C           4.8008    1.7382    1.6213 C.3     1  UNL1       -0.0237
     10 C           4.6231   -0.2974    0.4268 C.3     1  UNL1       -0.0237
     11 C           1.6850    1.3950   -1.2530 C.3     1  UNL1       -0.0181
     12 C           6.2268    1.3540    1.2306 C.3     1  UNL1       -0.0504
     13 C           6.1087    0.0588    0.4313 C.3     1  UNL1       -0.0504
     14 C          -0.0007    0.8133    0.4991 C.3     1  UNL1       -0.0013
     15 C           3.1485    1.4020   -1.6812 C.3     1  UNL1        0.0492
     16 C           1.4898   -1.0143   -0.2569 C.ar    1  UNL1        0.0478
     17 C          -0.2774    0.1027    1.8165 C.3     1  UNL1       -0.0325
     18 C           1.2388   -1.8858    0.7906 C.ar    1  UNL1       -0.0398
     19 C           1.3008   -3.2503    0.5309 C.ar    1  UNL1       -0.0586
     20 C           1.8415   -2.7429   -1.7290 C.ar    1  UNL1        0.0279
     21 C          -1.9180   -0.2623    3.5298 C.3     1  UNL1        0.0021
     22 C           1.6073   -3.6952   -0.7503 C.ar    1  UNL1       -0.0436
     23 C          -0.9897    0.2020    4.6206 C.ar    1  UNL1        0.0756
     24 C           0.2339   -0.3120    4.9900 C.ar    1  UNL1        0.1353
     25 C           0.8101    0.4070    6.0766 C.ar    1  UNL1       -0.0124
     26 C           0.0052    1.4431    6.4965 C.ar    1  UNL1       -0.0203
     27 C          -0.0825   -2.3496    3.8053 C.3     1  UNL1        0.0788
     28 H          -2.2953    0.0614    1.5586 H       1  UNL1        0.2017
     29 H          -1.7274    1.4019    2.3879 H       1  UNL1        0.2017
     30 H           2.1628    1.9541    1.4025 H       1  UNL1        0.0302
     31 H           2.4318    0.2502    1.8546 H       1  UNL1        0.0302
     32 H           4.5711    1.3839    2.6045 H       1  UNL1        0.0293
     33 H           4.6591    2.7986    1.6388 H       1  UNL1        0.0293
     34 H           4.3502   -0.7715   -0.4928 H       1  UNL1        0.0293
     35 H           4.3659   -0.9840    1.2061 H       1  UNL1        0.0293
     36 H           1.3901    2.3979   -1.0246 H       1  UNL1        0.0296
     37 H           1.1131    0.9894   -2.0613 H       1  UNL1        0.0296
     38 H           6.8229    1.1982    2.1054 H       1  UNL1        0.0266
     39 H           6.6984    2.1260    0.6592 H       1  UNL1        0.0266
     40 H           6.4591    0.2056   -0.5690 H       1  UNL1        0.0266
     41 H           6.6986   -0.7233    0.8618 H       1  UNL1        0.0266
     42 H          -0.7081    0.4828   -0.2325 H       1  UNL1        0.0326
     43 H          -0.0890    1.8682    0.6548 H       1  UNL1        0.0326
     44 H           3.4315    0.4119   -1.9720 H       1  UNL1        0.0560
     45 H           3.2580    2.0824   -2.4997 H       1  UNL1        0.0560
     46 H          -0.1674   -0.9529    1.6803 H       1  UNL1        0.0814
     47 H           0.4168    0.4462    2.5548 H       1  UNL1        0.0814
     48 H           1.0130   -1.5332    1.7339 H       1  UNL1        0.0636
     49 H           1.1199   -3.9301    1.2859 H       1  UNL1        0.0619
     50 H           2.0688   -3.0719   -2.6803 H       1  UNL1        0.0829
     51 H          -1.8047   -1.3191    3.4056 H       1  UNL1        0.0873
     52 H          -2.9182   -0.0131    3.8167 H       1  UNL1        0.0873
     53 H           1.6588   -4.7032   -0.9654 H       1  UNL1        0.0633
     54 H           1.7234    0.1785    6.4995 H       1  UNL1        0.0659
     55 H           0.2442    2.0820    7.2709 H       1  UNL1        0.0694
     56 H           0.4976   -3.1287    3.3566 H       1  UNL1        0.0660
     57 H          -0.6951   -1.8866    3.0602 H       1  UNL1        0.0660
     58 H          -0.7042   -2.7638    4.5713 H       1  UNL1        0.0660
@<TRIPOS>UNITY_ATOM_ATTR
5 1
charge 1
@<TRIPOS>BOND
     1     1    23   ar
     2     1    26   ar
     3     2     6    1
     4     2    15    1
     5     3    24    1
     6     3    27    1
     7     4    16   ar
     8     4    20   ar
     9     5    17    1
    10     5    21    1
    11     5    28    1
    12     5    29    1
    13     6     8    1
    14     6     9    1
    15     6    10    1
    16     7     8    1
    17     7    11    1
    18     7    14    1
    19     7    16    1
    20     8    30    1
    21     8    31    1
    22     9    12    1
    23     9    32    1
    24     9    33    1
    25    10    13    1
    26    10    34    1
    27    10    35    1
    28    11    15    1
    29    11    36    1
    30    11    37    1
    31    12    13    1
    32    12    38    1
    33    12    39    1
    34    13    40    1
    35    13    41    1
    36    14    17    1
    37    14    42    1
    38    14    43    1
    39    15    44    1
    40    15    45    1
    41    16    18   ar
    42    17    46    1
    43    17    47    1
    44    18    19   ar
    45    18    48    1
    46    19    22   ar
    47    19    49    1
    48    20    22   ar
    49    20    50    1
    50    21    23    1
    51    21    51    1
    52    21    52    1
    53    22    53    1
    54    23    24   ar
    55    24    25   ar
    56    25    26   ar
    57    25    54    1
    58    26    55    1
    59    27    56    1
    60    27    57    1
    61    27    58    1
@<TRIPOS>MOLECULE
66553195
 58 61 0 0 0
SMALL
GASTEIGER

@<TRIPOS>ATOM
      1 S          -4.2040    0.7982    3.2469 S.2     1  UNL1       -0.0926
      2 O           3.9947    1.8338   -0.6210 O.3     1  UNL1       -0.3733
      3 O          -3.1467    4.5158    3.2083 O.3     1  UNL1       -0.4941
      4 N           1.8670   -1.7871    0.7861 N.ar    1  UNL1       -0.2593
      5 N          -1.5373    2.5691    1.2118 N.4     1  UNL1        0.2308
      6 C           3.9072    1.0510    0.5757 C.3     1  UNL1        0.0704
      7 C           1.4313    0.5057   -0.0051 C.3     1  UNL1        0.0224
      8 C           2.4527    0.9788    1.0713 C.3     1  UNL1       -0.0124
      9 C           4.8008    1.7382    1.6213 C.3     1  UNL1       -0.0237
     10 C           4.6231   -0.2974    0.4268 C.3     1  UNL1       -0.0237
     11 C           1.6850    1.3950   -1.2530 C.3     1  UNL1       -0.0181
     12 C           6.2268    1.3540    1.2306 C.3     1  UNL1       -0.0504
     13 C           6.1087    0.0588    0.4313 C.3     1  UNL1       -0.0504
     14 C          -0.0007    0.8133    0.4991 C.3     1  UNL1       -0.0013
     15 C           3.1485    1.4020   -1.6812 C.3     1  UNL1        0.0492
     16 C           1.4898   -1.0143   -0.2569 C.ar    1  UNL1        0.0478
     17 C          -0.1891    2.3072    0.7222 C.3     1  UNL1       -0.0325
     18 C           1.1606   -1.5078   -1.5090 C.ar    1  UNL1       -0.0398
     19 C           1.2221   -2.8832   -1.7031 C.ar    1  UNL1       -0.0586
     20 C           1.9154   -3.1192    0.5598 C.ar    1  UNL1        0.0279
     21 C          -1.7699    1.8924    2.4800 C.3     1  UNL1        0.0021
     22 C           1.6058   -3.7112   -0.6540 C.ar    1  UNL1       -0.0436
     23 C          -3.1629    2.1346    2.9975 C.ar    1  UNL1        0.0756
     24 C          -3.7682    3.3290    3.3213 C.ar    1  UNL1        0.1353
     25 C          -5.1043    3.1443    3.7803 C.ar    1  UNL1       -0.0124
     26 C          -5.4694    1.8161    3.7898 C.ar    1  UNL1       -0.0203
     27 C          -3.5245    5.5545    4.1229 C.3     1  UNL1        0.0788
     28 H          -2.2130    2.2335    0.5254 H       1  UNL1        0.2017
     29 H          -1.6431    3.5736    1.3541 H       1  UNL1        0.2017
     30 H           2.1628    1.9541    1.4025 H       1  UNL1        0.0302
     31 H           2.4318    0.2502    1.8546 H       1  UNL1        0.0302
     32 H           4.5711    1.3839    2.6045 H       1  UNL1        0.0293
     33 H           4.6591    2.7986    1.6388 H       1  UNL1        0.0293
     34 H           4.3502   -0.7715   -0.4928 H       1  UNL1        0.0293
     35 H           4.3659   -0.9840    1.2061 H       1  UNL1        0.0293
     36 H           1.3901    2.3979   -1.0246 H       1  UNL1        0.0296
     37 H           1.1131    0.9894   -2.0613 H       1  UNL1        0.0296
     38 H           6.8229    1.1982    2.1054 H       1  UNL1        0.0266
     39 H           6.6984    2.1260    0.6592 H       1  UNL1        0.0266
     40 H           6.4591    0.2056   -0.5690 H       1  UNL1        0.0266
     41 H           6.6986   -0.7233    0.8618 H       1  UNL1        0.0266
     42 H          -0.1653    0.2978    1.4221 H       1  UNL1        0.0326
     43 H          -0.7011    0.4874   -0.2413 H       1  UNL1        0.0326
     44 H           3.4315    0.4119   -1.9720 H       1  UNL1        0.0560
     45 H           3.2580    2.0824   -2.4997 H       1  UNL1        0.0560
     46 H           0.5232    2.6510    1.4429 H       1  UNL1        0.0814
     47 H          -0.0440    2.8230   -0.2040 H       1  UNL1        0.0814
     48 H           0.8785   -0.8745   -2.2735 H       1  UNL1        0.0636
     49 H           0.9841   -3.2879   -2.6221 H       1  UNL1        0.0619
     50 H           2.2005   -3.7327    1.3391 H       1  UNL1        0.0829
     51 H          -1.0655    2.2544    3.1997 H       1  UNL1        0.0873
     52 H          -1.6527    0.8407    2.3214 H       1  UNL1        0.0873
     53 H           1.6582   -4.7347   -0.7756 H       1  UNL1        0.0633
     54 H          -5.7257    3.9152    4.0713 H       1  UNL1        0.0659
     55 H          -6.3961    1.4747    4.0890 H       1  UNL1        0.0694
     56 H          -2.9530    6.4356    3.9178 H       1  UNL1        0.0660
     57 H          -3.3362    5.2326    5.1258 H       1  UNL1        0.0660
     58 H          -4.5661    5.7702    4.0071 H       1  UNL1        0.0660
@<TRIPOS>UNITY_ATOM_ATTR
5 1
charge 1
@<TRIPOS>BOND
     1     1    23   ar
     2     1    26   ar
     3     2     6    1
     4     2    15    1
     5     3    24    1
     6     3    27    1
     7     4    16   ar
     8     4    20   ar
     9     5    17    1
    10     5    21    1
    11     5    28    1
    12     5    29    1
    13     6     8    1
    14     6     9    1
    15     6    10    1
    16     7     8    1
    17     7    11    1
    18     7    14    1
    19     7    16    1
    20     8    30    1
    21     8    31    1
    22     9    12    1
    23     9    32    1
    24     9    33    1
    25    10    13    1
    26    10    34    1
    27    10    35    1
    28    11    15    1
    29    11    36    1
    30    11    37    1
    31    12    13    1
    32    12    38    1
    33    12    39    1
    34    13    40    1
    35    13    41    1
    36    14    17    1
    37    14    42    1
    38    14    43    1
    39    15    44    1
    40    15    45    1
    41    16    18   ar
    42    17    46    1
    43    17    47    1
    44    18    19   ar
    45    18    48    1
    46    19    22   ar
    47    19    49    1
    48    20    22   ar
    49    20    50    1
    50    21    23    1
    51    21    51    1
    52    21    52    1
    53    22    53    1
    54    23    24   ar
    55    24    25   ar
    56    25    26   ar
    57    25    54    1
    58    26    55    1
    59    27    56    1
    60    27    57    1
    61    27    58    1
@<TRIPOS>MOLECULE
66553195
 58 61 0 0 0
SMALL
GASTEIGER

@<TRIPOS>ATOM
      1 S          -4.1702    5.2933    1.0240 S.2     1  UNL1       -0.0926
      2 O           3.9947    1.8338   -0.6210 O.3     1  UNL1       -0.3733
      3 O          -3.0983    3.0521    3.9851 O.3     1  UNL1       -0.4941
      4 N           2.3917   -1.7141    0.4672 N.ar    1  UNL1       -0.2593
      5 N          -1.5373    2.5691    1.2118 N.4     1  UNL1        0.2308
      6 C           3.9072    1.0510    0.5757 C.3     1  UNL1        0.0704
      7 C           1.4313    0.5057   -0.0051 C.3     1  UNL1        0.0224
      8 C           2.4527    0.9788    1.0713 C.3     1  UNL1       -0.0124
      9 C           4.8008    1.7382    1.6213 C.3     1  UNL1       -0.0237
     10 C           4.6231   -0.2974    0.4268 C.3     1  UNL1       -0.0237
     11 C           1.6850    1.3950   -1.2530 C.3     1  UNL1       -0.0181
     12 C           6.2268    1.3540    1.2306 C.3     1  UNL1       -0.0504
     13 C           6.1087    0.0588    0.4313 C.3     1  UNL1       -0.0504
     14 C          -0.0007    0.8133    0.4991 C.3     1  UNL1       -0.0013
     15 C           3.1485    1.4020   -1.6812 C.3     1  UNL1        0.0492
     16 C           1.4898   -1.0143   -0.2569 C.ar    1  UNL1        0.0478
     17 C          -0.1891    2.3072    0.7222 C.3     1  UNL1       -0.0325
     18 C           0.6363   -1.5809   -1.1898 C.ar    1  UNL1       -0.0398
     19 C           0.7132   -2.9543   -1.3924 C.ar    1  UNL1       -0.0586
     20 C           2.4377   -3.0466    0.2430 C.ar    1  UNL1        0.0279
     21 C          -1.7472    3.9952    1.4173 C.3     1  UNL1        0.0021
     22 C           1.6284   -3.7083   -0.6662 C.ar    1  UNL1       -0.0436
     23 C          -3.1285    4.2891    1.9396 C.ar    1  UNL1        0.0756
     24 C          -3.7222    3.8533    3.1039 C.ar    1  UNL1        0.1353
     25 C          -5.0498    4.3504    3.2459 C.ar    1  UNL1       -0.0124
     26 C          -5.4204    5.1471    2.1849 C.ar    1  UNL1       -0.0203
     27 C          -2.1124    2.1429    3.4758 C.3     1  UNL1        0.0788
     28 H          -1.6719    2.0807    2.0971 H       1  UNL1        0.2017
     29 H          -2.2066    2.2379    0.5170 H       1  UNL1        0.2017
     30 H           2.1628    1.9541    1.4025 H       1  UNL1        0.0302
     31 H           2.4318    0.2502    1.8546 H       1  UNL1        0.0302
     32 H           4.5711    1.3839    2.6045 H       1  UNL1        0.0293
     33 H           4.6591    2.7986    1.6388 H       1  UNL1        0.0293
     34 H           4.3502   -0.7715   -0.4928 H       1  UNL1        0.0293
     35 H           4.3659   -0.9840    1.2061 H       1  UNL1        0.0293
     36 H           1.3901    2.3979   -1.0246 H       1  UNL1        0.0296
     37 H           1.1131    0.9894   -2.0613 H       1  UNL1        0.0296
     38 H           6.8229    1.1982    2.1054 H       1  UNL1        0.0266
     39 H           6.6984    2.1260    0.6592 H       1  UNL1        0.0266
     40 H           6.4591    0.2056   -0.5690 H       1  UNL1        0.0266
     41 H           6.6986   -0.7233    0.8618 H       1  UNL1        0.0266
     42 H          -0.1653    0.2978    1.4221 H       1  UNL1        0.0326
     43 H          -0.7011    0.4874   -0.2413 H       1  UNL1        0.0326
     44 H           3.4315    0.4119   -1.9720 H       1  UNL1        0.0560
     45 H           3.2580    2.0824   -2.4997 H       1  UNL1        0.0560
     46 H           0.5232    2.6510    1.4429 H       1  UNL1        0.0814
     47 H          -0.0440    2.8230   -0.2040 H       1  UNL1        0.0814
     48 H          -0.0353   -1.0018   -1.7176 H       1  UNL1        0.0636
     49 H           0.0936   -3.4122   -2.0789 H       1  UNL1        0.0619
     50 H           3.1175   -3.6052    0.7823 H       1  UNL1        0.0829
     51 H          -1.6148    4.5025    0.4845 H       1  UNL1        0.0873
     52 H          -1.0386    4.3337    2.1441 H       1  UNL1        0.0873
     53 H           1.7024   -4.7289   -0.8004 H       1  UNL1        0.0633
     54 H          -5.6620    4.1386    4.0493 H       1  UNL1        0.0659
     55 H          -6.3426    5.6022    2.0998 H       1  UNL1        0.0694
     56 H          -1.7019    1.5731    4.2830 H       1  UNL1        0.0660
     57 H          -1.3317    2.6955    2.9960 H       1  UNL1        0.0660
     58 H          -2.5683    1.4821    2.7684 H       1  UNL1        0.0660
@<TRIPOS>UNITY_ATOM_ATTR
5 1
charge 1
@<TRIPOS>BOND
     1     1    23   ar
     2     1    26   ar
     3     2     6    1
     4     2    15    1
     5     3    24    1
     6     3    27    1
     7     4    16   ar
     8     4    20   ar
     9     5    17    1
    10     5    21    1
    11     5    28    1
    12     5    29    1
    13     6     8    1
    14     6     9    1
    15     6    10    1
    16     7     8    1
    17     7    11    1
    18     7    14    1
    19     7    16    1
    20     8    30    1
    21     8    31    1
    22     9    12    1
    23     9    32    1
    24     9    33    1
    25    10    13    1
    26    10    34    1
    27    10    35    1
    28    11    15    1
    29    11    36    1
    30    11    37    1
    31    12    13    1
    32    12    38    1
    33    12    39    1
    34    13    40    1
    35    13    41    1
    36    14    17    1
    37    14    42    1
    38    14    43    1
    39    15    44    1
    40    15    45    1
    41    16    18   ar
    42    17    46    1
    43    17    47    1
    44    18    19   ar
    45    18    48    1
    46    19    22   ar
    47    19    49    1
    48    20    22   ar
    49    20    50    1
    50    21    23    1
    51    21    51    1
    52    21    52    1
    53    22    53    1
    54    23    24   ar
    55    24    25   ar
    56    25    26   ar
    57    25    54    1
    58    26    55    1
    59    27    56    1
    60    27    57    1
    61    27    58    1
@<TRIPOS>MOLECULE
66553195
 58 61 0 0 0
SMALL
GASTEIGER

@<TRIPOS>ATOM
      1 S          -5.3065   -0.7278    1.3481 S.2     1  UNL1       -0.0926
      2 O           3.9947    1.8338   -0.6210 O.3     1  UNL1       -0.3733
      3 O          -3.5937    2.2952    3.0417 O.3     1  UNL1       -0.4941
      4 N           2.3355   -1.4362   -1.2235 N.ar    1  UNL1       -0.2593
      5 N          -2.3798    0.6689   -0.0216 N.4     1  UNL1        0.2308
      6 C           3.9072    1.0510    0.5757 C.3     1  UNL1        0.0704
      7 C           1.4313    0.5057   -0.0051 C.3     1  UNL1        0.0224
      8 C           2.4527    0.9788    1.0713 C.3     1  UNL1       -0.0124
      9 C           4.8008    1.7382    1.6213 C.3     1  UNL1       -0.0237
     10 C           4.6231   -0.2974    0.4268 C.3     1  UNL1       -0.0237
     11 C           1.6850    1.3950   -1.2530 C.3     1  UNL1       -0.0181
     12 C           6.2268    1.3540    1.2306 C.3     1  UNL1       -0.0504
     13 C           6.1087    0.0588    0.4313 C.3     1  UNL1       -0.0504
     14 C          -0.0007    0.8133    0.4991 C.3     1  UNL1       -0.0013
     15 C           3.1485    1.4020   -1.6812 C.3     1  UNL1        0.0492
     16 C           1.4898   -1.0143   -0.2569 C.ar    1  UNL1        0.0478
     17 C          -1.0428    0.3538   -0.5107 C.3     1  UNL1       -0.0325
     18 C           0.6938   -1.8586    0.5002 C.ar    1  UNL1       -0.0398
     19 C           0.7710   -3.2240    0.2494 C.ar    1  UNL1       -0.0586
     20 C           2.3834   -2.7700   -1.4391 C.ar    1  UNL1        0.0279
     21 C          -2.6329    0.0163    1.2551 C.3     1  UNL1        0.0021
     22 C           1.6295   -3.6966   -0.7370 C.ar    1  UNL1       -0.0436
     23 C          -4.0153    0.3136    1.7725 C.ar    1  UNL1        0.0756
     24 C          -4.4307    1.3497    2.5798 C.ar    1  UNL1        0.1353
     25 C          -5.8275    1.2876    2.8535 C.ar    1  UNL1       -0.0124
     26 C          -6.4265    0.2065    2.2451 C.ar    1  UNL1       -0.0203
     27 C          -2.4550    2.6275    2.2350 C.3     1  UNL1        0.0788
     28 H          -3.0686    0.3491   -0.7026 H       1  UNL1        0.2017
     29 H          -2.4497    1.6782    0.1086 H       1  UNL1        0.2017
     30 H           2.1628    1.9541    1.4025 H       1  UNL1        0.0302
     31 H           2.4318    0.2502    1.8546 H       1  UNL1        0.0302
     32 H           4.5711    1.3839    2.6045 H       1  UNL1        0.0293
     33 H           4.6591    2.7986    1.6388 H       1  UNL1        0.0293
     34 H           4.3502   -0.7715   -0.4928 H       1  UNL1        0.0293
     35 H           4.3659   -0.9840    1.2061 H       1  UNL1        0.0293
     36 H           1.3901    2.3979   -1.0246 H       1  UNL1        0.0296
     37 H           1.1131    0.9894   -2.0613 H       1  UNL1        0.0296
     38 H           6.8229    1.1982    2.1054 H       1  UNL1        0.0266
     39 H           6.6984    2.1260    0.6592 H       1  UNL1        0.0266
     40 H           6.4591    0.2056   -0.5690 H       1  UNL1        0.0266
     41 H           6.6986   -0.7233    0.8618 H       1  UNL1        0.0266
     42 H          -0.1000    1.8680    0.6496 H       1  UNL1        0.0326
     43 H          -0.1599    0.2879    1.4175 H       1  UNL1        0.0326
     44 H           3.4315    0.4119   -1.9720 H       1  UNL1        0.0560
     45 H           3.2580    2.0824   -2.4997 H       1  UNL1        0.0560
     46 H          -0.8788    0.8537   -1.4425 H       1  UNL1        0.0814
     47 H          -0.9581   -0.7040   -0.6482 H       1  UNL1        0.0814
     48 H           0.0635   -1.4858    1.2275 H       1  UNL1        0.0636
     49 H           0.1934   -3.8841    0.7931 H       1  UNL1        0.0619
     50 H           3.0208   -3.1195   -2.1716 H       1  UNL1        0.0829
     51 H          -1.9145    0.3619    1.9689 H       1  UNL1        0.0873
     52 H          -2.5533   -1.0407    1.1091 H       1  UNL1        0.0873
     53 H           1.7029   -4.7058   -0.9398 H       1  UNL1        0.0633
     54 H          -6.3314    1.9722    3.4388 H       1  UNL1        0.0659
     55 H          -7.4317   -0.0143    2.3210 H       1  UNL1        0.0694
     56 H          -1.8822    3.3884    2.7226 H       1  UNL1        0.0660
     57 H          -2.7851    2.9850    1.2820 H       1  UNL1        0.0660
     58 H          -1.8482    1.7568    2.0985 H       1  UNL1        0.0660
@<TRIPOS>UNITY_ATOM_ATTR
5 1
charge 1
@<TRIPOS>BOND
     1     1    23   ar
     2     1    26   ar
     3     2     6    1
     4     2    15    1
     5     3    24    1
     6     3    27    1
     7     4    16   ar
     8     4    20   ar
     9     5    17    1
    10     5    21    1
    11     5    28    1
    12     5    29    1
    13     6     8    1
    14     6     9    1
    15     6    10    1
    16     7     8    1
    17     7    11    1
    18     7    14    1
    19     7    16    1
    20     8    30    1
    21     8    31    1
    22     9    12    1
    23     9    32    1
    24     9    33    1
    25    10    13    1
    26    10    34    1
    27    10    35    1
    28    11    15    1
    29    11    36    1
    30    11    37    1
    31    12    13    1
    32    12    38    1
    33    12    39    1
    34    13    40    1
    35    13    41    1
    36    14    17    1
    37    14    42    1
    38    14    43    1
    39    15    44    1
    40    15    45    1
    41    16    18   ar
    42    17    46    1
    43    17    47    1
    44    18    19   ar
    45    18    48    1
    46    19    22   ar
    47    19    49    1
    48    20    22   ar
    49    20    50    1
    50    21    23    1
    51    21    51    1
    52    21    52    1
    53    22    53    1
    54    23    24   ar
    55    24    25   ar
    56    25    26   ar
    57    25    54    1
    58    26    55    1
    59    27    56    1
    60    27    57    1
    61    27    58    1
@<TRIPOS>MOLECULE
66553195
 58 61 0 0 0
SMALL
GASTEIGER

@<TRIPOS>ATOM
      1 S          -1.3530   -2.2938    2.1130 S.2     1  UNL1       -0.0926
      2 O           3.9947    1.8338   -0.6210 O.3     1  UNL1       -0.3733
      3 O          -4.2026   -1.9459   -0.4753 O.3     1  UNL1       -0.4941
      4 N           1.2206   -1.8141    0.7992 N.ar    1  UNL1       -0.2593
      5 N          -2.3798    0.6689   -0.0216 N.4     1  UNL1        0.2308
      6 C           3.9072    1.0510    0.5757 C.3     1  UNL1        0.0704
      7 C           1.4313    0.5057   -0.0051 C.3     1  UNL1        0.0224
      8 C           2.4527    0.9788    1.0713 C.3     1  UNL1       -0.0124
      9 C           4.8008    1.7382    1.6213 C.3     1  UNL1       -0.0237
     10 C           4.6231   -0.2974    0.4268 C.3     1  UNL1       -0.0237
     11 C           1.6850    1.3950   -1.2530 C.3     1  UNL1       -0.0181
     12 C           6.2268    1.3540    1.2306 C.3     1  UNL1       -0.0504
     13 C           6.1087    0.0588    0.4313 C.3     1  UNL1       -0.0504
     14 C          -0.0007    0.8133    0.4991 C.3     1  UNL1       -0.0013
     15 C           3.1485    1.4020   -1.6812 C.3     1  UNL1        0.0492
     16 C           1.4898   -1.0143   -0.2569 C.ar    1  UNL1        0.0478
     17 C          -1.0428    0.3538   -0.5107 C.3     1  UNL1       -0.0325
     18 C           1.8067   -1.4807   -1.5225 C.ar    1  UNL1       -0.0398
     19 C           1.8498   -2.8568   -1.7169 C.ar    1  UNL1       -0.0586
     20 C           1.2723   -3.1460    0.5722 C.ar    1  UNL1        0.0279
     21 C          -2.6329    0.0163    1.2551 C.3     1  UNL1        0.0021
     22 C           1.5787   -3.7121   -0.6547 C.ar    1  UNL1       -0.0436
     23 C          -2.5145   -1.4812    1.1525 C.ar    1  UNL1        0.0756
     24 C          -3.2336   -2.3521    0.3636 C.ar    1  UNL1        0.1353
     25 C          -2.8254   -3.7043    0.5504 C.ar    1  UNL1       -0.0124
     26 C          -1.8101   -3.8155    1.4748 C.ar    1  UNL1       -0.0203
     27 C          -4.9333   -0.7623   -0.1244 C.3     1  UNL1        0.0788
     28 H          -3.0686    0.3491   -0.7026 H       1  UNL1        0.2017
     29 H          -2.4497    1.6782    0.1086 H       1  UNL1        0.2017
     30 H           2.1628    1.9541    1.4025 H       1  UNL1        0.0302
     31 H           2.4318    0.2502    1.8546 H       1  UNL1        0.0302
     32 H           4.5711    1.3839    2.6045 H       1  UNL1        0.0293
     33 H           4.6591    2.7986    1.6388 H       1  UNL1        0.0293
     34 H           4.3502   -0.7715   -0.4928 H       1  UNL1        0.0293
     35 H           4.3659   -0.9840    1.2061 H       1  UNL1        0.0293
     36 H           1.3901    2.3979   -1.0246 H       1  UNL1        0.0296
     37 H           1.1131    0.9894   -2.0613 H       1  UNL1        0.0296
     38 H           6.8229    1.1982    2.1054 H       1  UNL1        0.0266
     39 H           6.6984    2.1260    0.6592 H       1  UNL1        0.0266
     40 H           6.4591    0.2056   -0.5690 H       1  UNL1        0.0266
     41 H           6.6986   -0.7233    0.8618 H       1  UNL1        0.0266
     42 H          -0.1000    1.8680    0.6496 H       1  UNL1        0.0326
     43 H          -0.1599    0.2879    1.4175 H       1  UNL1        0.0326
     44 H           3.4315    0.4119   -1.9720 H       1  UNL1        0.0560
     45 H           3.2580    2.0824   -2.4997 H       1  UNL1        0.0560
     46 H          -0.8788    0.8537   -1.4425 H       1  UNL1        0.0814
     47 H          -0.9581   -0.7040   -0.6482 H       1  UNL1        0.0814
     48 H           2.0045   -0.8274   -2.2965 H       1  UNL1        0.0636
     49 H           2.0822   -3.2418   -2.6457 H       1  UNL1        0.0619
     50 H           1.0711   -3.7798    1.3613 H       1  UNL1        0.0829
     51 H          -3.6218    0.2638    1.5803 H       1  UNL1        0.0873
     52 H          -1.8999    0.3601    1.9547 H       1  UNL1        0.0873
     53 H           1.6048   -4.7366   -0.7764 H       1  UNL1        0.0633
     54 H          -3.2415   -4.5063    0.0516 H       1  UNL1        0.0659
     55 H          -1.3762   -4.7104    1.7502 H       1  UNL1        0.0694
     56 H          -5.6667   -0.5598   -0.8769 H       1  UNL1        0.0660
     57 H          -4.2587    0.0651   -0.0520 H       1  UNL1        0.0660
     58 H          -5.4198   -0.9094    0.8172 H       1  UNL1        0.0660
@<TRIPOS>UNITY_ATOM_ATTR
5 1
charge 1
@<TRIPOS>BOND
     1     1    23   ar
     2     1    26   ar
     3     2     6    1
     4     2    15    1
     5     3    24    1
     6     3    27    1
     7     4    16   ar
     8     4    20   ar
     9     5    17    1
    10     5    21    1
    11     5    28    1
    12     5    29    1
    13     6     8    1
    14     6     9    1
    15     6    10    1
    16     7     8    1
    17     7    11    1
    18     7    14    1
    19     7    16    1
    20     8    30    1
    21     8    31    1
    22     9    12    1
    23     9    32    1
    24     9    33    1
    25    10    13    1
    26    10    34    1
    27    10    35    1
    28    11    15    1
    29    11    36    1
    30    11    37    1
    31    12    13    1
    32    12    38    1
    33    12    39    1
    34    13    40    1
    35    13    41    1
    36    14    17    1
    37    14    42    1
    38    14    43    1
    39    15    44    1
    40    15    45    1
    41    16    18   ar
    42    17    46    1
    43    17    47    1
    44    18    19   ar
    45    18    48    1
    46    19    22   ar
    47    19    49    1
    48    20    22   ar
    49    20    50    1
    50    21    23    1
    51    21    51    1
    52    21    52    1
    53    22    53    1
    54    23    24   ar
    55    24    25   ar
    56    25    26   ar
    57    25    54    1
    58    26    55    1
    59    27    56    1
    60    27    57    1
    61    27    58    1
@<TRIPOS>MOLECULE
66553195
 58 61 0 0 0
SMALL
GASTEIGER

@<TRIPOS>ATOM
      1 S          -5.2874   -0.8110    1.2297 S.2     1  UNL1       -0.0926
      2 O           3.9947    1.8338   -0.6210 O.3     1  UNL1       -0.3733
      3 O          -3.6736    2.2331    2.9818 O.3     1  UNL1       -0.4941
      4 N           0.6441   -1.5069   -1.1894 N.ar    1  UNL1       -0.2593
      5 N          -1.6350    0.3940    2.2612 N.4     1  UNL1        0.2308
      6 C           3.9072    1.0510    0.5757 C.3     1  UNL1        0.0704
      7 C           1.4313    0.5057   -0.0051 C.3     1  UNL1        0.0224
      8 C           2.4527    0.9788    1.0713 C.3     1  UNL1       -0.0124
      9 C           4.8008    1.7382    1.6213 C.3     1  UNL1       -0.0237
     10 C           4.6231   -0.2974    0.4268 C.3     1  UNL1       -0.0237
     11 C           1.6850    1.3950   -1.2530 C.3     1  UNL1       -0.0181
     12 C           6.2268    1.3540    1.2306 C.3     1  UNL1       -0.0504
     13 C           6.1087    0.0588    0.4313 C.3     1  UNL1       -0.0504
     14 C          -0.0007    0.8133    0.4991 C.3     1  UNL1       -0.0013
     15 C           3.1485    1.4020   -1.6812 C.3     1  UNL1        0.0492
     16 C           1.4898   -1.0143   -0.2569 C.ar    1  UNL1        0.0478
     17 C          -0.2774    0.1027    1.8165 C.3     1  UNL1       -0.0325
     18 C           2.3845   -1.7877    0.4649 C.ar    1  UNL1       -0.0398
     19 C           2.4134   -3.1548    0.2132 C.ar    1  UNL1       -0.0586
     20 C           0.7007   -2.8401   -1.4068 C.ar    1  UNL1        0.0279
     21 C          -2.6118   -0.0704    1.2863 C.3     1  UNL1        0.0021
     22 C           1.5587   -3.6989   -0.7390 C.ar    1  UNL1       -0.0436
     23 C          -4.0220    0.2350    1.7163 C.ar    1  UNL1        0.0756
     24 C          -4.4831    1.2822    2.4836 C.ar    1  UNL1        0.1353
     25 C          -5.8939    1.2249    2.6743 C.ar    1  UNL1       -0.0124
     26 C          -6.4573    0.1362    2.0458 C.ar    1  UNL1       -0.0203
     27 C          -4.2711    3.2637    3.7811 C.3     1  UNL1        0.0788
     28 H          -1.7377    1.4015    2.3829 H       1  UNL1        0.2017
     29 H          -1.7999   -0.0900    3.1438 H       1  UNL1        0.2017
     30 H           2.1628    1.9541    1.4025 H       1  UNL1        0.0302
     31 H           2.4318    0.2502    1.8546 H       1  UNL1        0.0302
     32 H           4.5711    1.3839    2.6045 H       1  UNL1        0.0293
     33 H           4.6591    2.7986    1.6388 H       1  UNL1        0.0293
     34 H           4.3502   -0.7715   -0.4928 H       1  UNL1        0.0293
     35 H           4.3659   -0.9840    1.2061 H       1  UNL1        0.0293
     36 H           1.3901    2.3979   -1.0246 H       1  UNL1        0.0296
     37 H           1.1131    0.9894   -2.0613 H       1  UNL1        0.0296
     38 H           6.8229    1.1982    2.1054 H       1  UNL1        0.0266
     39 H           6.6984    2.1260    0.6592 H       1  UNL1        0.0266
     40 H           6.4591    0.2056   -0.5690 H       1  UNL1        0.0266
     41 H           6.6986   -0.7233    0.8618 H       1  UNL1        0.0266
     42 H          -0.7081    0.4828   -0.2325 H       1  UNL1        0.0326
     43 H          -0.0890    1.8682    0.6548 H       1  UNL1        0.0326
     44 H           3.4315    0.4119   -1.9720 H       1  UNL1        0.0560
     45 H           3.2580    2.0824   -2.4997 H       1  UNL1        0.0560
     46 H          -0.1674   -0.9529    1.6803 H       1  UNL1        0.0814
     47 H           0.4168    0.4462    2.5548 H       1  UNL1        0.0814
     48 H           3.0098   -1.3625    1.1673 H       1  UNL1        0.0636
     49 H           3.0665   -3.7633    0.7311 H       1  UNL1        0.0619
     50 H           0.0657   -3.2429   -2.1136 H       1  UNL1        0.0829
     51 H          -2.5073   -1.1289    1.1689 H       1  UNL1        0.0873
     52 H          -2.4282    0.4396    0.3637 H       1  UNL1        0.0873
     53 H           1.5633   -4.7108   -0.9420 H       1  UNL1        0.0633
     54 H          -6.4306    1.9177    3.2193 H       1  UNL1        0.0659
     55 H          -7.4656   -0.0827    2.0646 H       1  UNL1        0.0694
     56 H          -3.5141    3.9459    4.1075 H       1  UNL1        0.0660
     57 H          -4.7464    2.8240    4.6330 H       1  UNL1        0.0660
     58 H          -4.9984    3.7900    3.1990 H       1  UNL1        0.0660
@<TRIPOS>UNITY_ATOM_ATTR
5 1
charge 1
@<TRIPOS>BOND
     1     1    23   ar
     2     1    26   ar
     3     2     6    1
     4     2    15    1
     5     3    24    1
     6     3    27    1
     7     4    16   ar
     8     4    20   ar
     9     5    17    1
    10     5    21    1
    11     5    28    1
    12     5    29    1
    13     6     8    1
    14     6     9    1
    15     6    10    1
    16     7     8    1
    17     7    11    1
    18     7    14    1
    19     7    16    1
    20     8    30    1
    21     8    31    1
    22     9    12    1
    23     9    32    1
    24     9    33    1
    25    10    13    1
    26    10    34    1
    27    10    35    1
    28    11    15    1
    29    11    36    1
    30    11    37    1
    31    12    13    1
    32    12    38    1
    33    12    39    1
    34    13    40    1
    35    13    41    1
    36    14    17    1
    37    14    42    1
    38    14    43    1
    39    15    44    1
    40    15    45    1
    41    16    18   ar
    42    17    46    1
    43    17    47    1
    44    18    19   ar
    45    18    48    1
    46    19    22   ar
    47    19    49    1
    48    20    22   ar
    49    20    50    1
    50    21    23    1
    51    21    51    1
    52    21    52    1
    53    22    53    1
    54    23    24   ar
    55    24    25   ar
    56    25    26   ar
    57    25    54    1
    58    26    55    1
    59    27    56    1
    60    27    57    1
    61    27    58    1
@<TRIPOS>MOLECULE
66553195
 58 61 0 0 0
SMALL
GASTEIGER

@<TRIPOS>ATOM
      1 S          -4.6002   -0.4055    3.1953 S.2     1  UNL1       -0.0926
      2 O           3.9947    1.8338   -0.6210 O.3     1  UNL1       -0.3733
      3 O          -4.7532    1.5973   -0.1071 O.3     1  UNL1       -0.4941
      4 N           1.1728   -1.4348   -1.5019 N.ar    1  UNL1       -0.2593
      5 N          -1.6350    0.3940    2.2612 N.4     1  UNL1        0.2308
      6 C           3.9072    1.0510    0.5757 C.3     1  UNL1        0.0704
      7 C           1.4313    0.5057   -0.0051 C.3     1  UNL1        0.0224
      8 C           2.4527    0.9788    1.0713 C.3     1  UNL1       -0.0124
      9 C           4.8008    1.7382    1.6213 C.3     1  UNL1       -0.0237
     10 C           4.6231   -0.2974    0.4268 C.3     1  UNL1       -0.0237
     11 C           1.6850    1.3950   -1.2530 C.3     1  UNL1       -0.0181
     12 C           6.2268    1.3540    1.2306 C.3     1  UNL1       -0.0504
     13 C           6.1087    0.0588    0.4313 C.3     1  UNL1       -0.0504
     14 C          -0.0007    0.8133    0.4991 C.3     1  UNL1       -0.0013
     15 C           3.1485    1.4020   -1.6812 C.3     1  UNL1        0.0492
     16 C           1.4898   -1.0143   -0.2569 C.ar    1  UNL1        0.0478
     17 C          -0.2774    0.1027    1.8165 C.3     1  UNL1       -0.0325
     18 C           1.8563   -1.8599    0.7777 C.ar    1  UNL1       -0.0398
     19 C           1.9006   -3.2250    0.5177 C.ar    1  UNL1       -0.0586
     20 C           1.2269   -2.7685   -1.7172 C.ar    1  UNL1        0.0279
     21 C          -2.6118   -0.0704    1.2863 C.3     1  UNL1        0.0021
     22 C           1.5815   -3.6961   -0.7510 C.ar    1  UNL1       -0.0436
     23 C          -4.0220    0.2350    1.7163 C.ar    1  UNL1        0.0756
     24 C          -4.9763    0.9917    1.0724 C.ar    1  UNL1        0.1353
     25 C          -6.1982    1.0462    1.8030 C.ar    1  UNL1       -0.0124
     26 C          -6.1314    0.3293    2.9775 C.ar    1  UNL1       -0.0203
     27 C          -5.8724    1.7727   -0.9872 C.3     1  UNL1        0.0788
     28 H          -1.7377    1.4015    2.3829 H       1  UNL1        0.2017
     29 H          -1.7999   -0.0900    3.1438 H       1  UNL1        0.2017
     30 H           2.1628    1.9541    1.4025 H       1  UNL1        0.0302
     31 H           2.4318    0.2502    1.8546 H       1  UNL1        0.0302
     32 H           4.5711    1.3839    2.6045 H       1  UNL1        0.0293
     33 H           4.6591    2.7986    1.6388 H       1  UNL1        0.0293
     34 H           4.3502   -0.7715   -0.4928 H       1  UNL1        0.0293
     35 H           4.3659   -0.9840    1.2061 H       1  UNL1        0.0293
     36 H           1.3901    2.3979   -1.0246 H       1  UNL1        0.0296
     37 H           1.1131    0.9894   -2.0613 H       1  UNL1        0.0296
     38 H           6.8229    1.1982    2.1054 H       1  UNL1        0.0266
     39 H           6.6984    2.1260    0.6592 H       1  UNL1        0.0266
     40 H           6.4591    0.2056   -0.5690 H       1  UNL1        0.0266
     41 H           6.6986   -0.7233    0.8618 H       1  UNL1        0.0266
     42 H          -0.7081    0.4828   -0.2325 H       1  UNL1        0.0326
     43 H          -0.0890    1.8682    0.6548 H       1  UNL1        0.0326
     44 H           3.4315    0.4119   -1.9720 H       1  UNL1        0.0560
     45 H           3.2580    2.0824   -2.4997 H       1  UNL1        0.0560
     46 H          -0.1674   -0.9529    1.6803 H       1  UNL1        0.0814
     47 H           0.4168    0.4462    2.5548 H       1  UNL1        0.0814
     48 H           2.0890   -1.4881    1.7119 H       1  UNL1        0.0636
     49 H           2.1692   -3.8860    1.2633 H       1  UNL1        0.0619
     50 H           0.9896   -3.1170   -2.6591 H       1  UNL1        0.0829
     51 H          -2.5073   -1.1289    1.1689 H       1  UNL1        0.0873
     52 H          -2.4282    0.4396    0.3637 H       1  UNL1        0.0873
     53 H           1.6078   -4.7050   -0.9662 H       1  UNL1        0.0633
     54 H          -7.0352    1.5621    1.4893 H       1  UNL1        0.0659
     55 H          -6.9121    0.2451    3.6471 H       1  UNL1        0.0694
     56 H          -5.5495    2.2647   -1.8809 H       1  UNL1        0.0660
     57 H          -6.6179    2.3675   -0.5020 H       1  UNL1        0.0660
     58 H          -6.2843    0.8169   -1.2352 H       1  UNL1        0.0660
@<TRIPOS>UNITY_ATOM_ATTR
5 1
charge 1
@<TRIPOS>BOND
     1     1    23   ar
     2     1    26   ar
     3     2     6    1
     4     2    15    1
     5     3    24    1
     6     3    27    1
     7     4    16   ar
     8     4    20   ar
     9     5    17    1
    10     5    21    1
    11     5    28    1
    12     5    29    1
    13     6     8    1
    14     6     9    1
    15     6    10    1
    16     7     8    1
    17     7    11    1
    18     7    14    1
    19     7    16    1
    20     8    30    1
    21     8    31    1
    22     9    12    1
    23     9    32    1
    24     9    33    1
    25    10    13    1
    26    10    34    1
    27    10    35    1
    28    11    15    1
    29    11    36    1
    30    11    37    1
    31    12    13    1
    32    12    38    1
    33    12    39    1
    34    13    40    1
    35    13    41    1
    36    14    17    1
    37    14    42    1
    38    14    43    1
    39    15    44    1
    40    15    45    1
    41    16    18   ar
    42    17    46    1
    43    17    47    1
    44    18    19   ar
    45    18    48    1
    46    19    22   ar
    47    19    49    1
    48    20    22   ar
    49    20    50    1
    50    21    23    1
    51    21    51    1
    52    21    52    1
    53    22    53    1
    54    23    24   ar
    55    24    25   ar
    56    25    26   ar
    57    25    54    1
    58    26    55    1
    59    27    56    1
    60    27    57    1
    61    27    58    1
@<TRIPOS>MOLECULE
66553195
 58 61 0 0 0
SMALL
GASTEIGER

@<TRIPOS>ATOM
      1 S          -1.7560    4.3551   -1.1583 S.2     1  UNL1       -0.0926
      2 O           3.9947    1.8338   -0.6210 O.3     1  UNL1       -0.3733
      3 O          -3.2108    1.0432   -2.5202 O.3     1  UNL1       -0.4941
      4 N           0.3359   -1.6114   -0.6301 N.ar    1  UNL1       -0.2593
      5 N          -1.5373    2.5691    1.2118 N.4     1  UNL1        0.2308
      6 C           3.9072    1.0510    0.5757 C.3     1  UNL1        0.0704
      7 C           1.4313    0.5057   -0.0051 C.3     1  UNL1        0.0224
      8 C           2.4527    0.9788    1.0713 C.3     1  UNL1       -0.0124
      9 C           4.8008    1.7382    1.6213 C.3     1  UNL1       -0.0237
     10 C           4.6231   -0.2974    0.4268 C.3     1  UNL1       -0.0237
     11 C           1.6850    1.3950   -1.2530 C.3     1  UNL1       -0.0181
     12 C           6.2268    1.3540    1.2306 C.3     1  UNL1       -0.0504
     13 C           6.1087    0.0588    0.4313 C.3     1  UNL1       -0.0504
     14 C          -0.0007    0.8133    0.4991 C.3     1  UNL1       -0.0013
     15 C           3.1485    1.4020   -1.6812 C.3     1  UNL1        0.0492
     16 C           1.4898   -1.0143   -0.2569 C.ar    1  UNL1        0.0478
     17 C          -0.1891    2.3072    0.7222 C.3     1  UNL1       -0.0325
     18 C           2.6922   -1.6832   -0.0944 C.ar    1  UNL1       -0.0398
     19 C           2.7117   -3.0533   -0.3305 C.ar    1  UNL1       -0.0586
     20 C           0.3934   -2.9441   -0.8507 C.ar    1  UNL1        0.0279
     21 C          -2.5353    2.0995    0.2612 C.3     1  UNL1        0.0021
     22 C           1.5446   -3.7033   -0.7163 C.ar    1  UNL1       -0.0436
     23 C          -2.3886    2.7659   -1.0809 C.ar    1  UNL1        0.0756
     24 C          -2.6998    2.2719   -2.3288 C.ar    1  UNL1        0.1353
     25 C          -2.4151    3.2109   -3.3619 C.ar    1  UNL1       -0.0124
     26 C          -1.8971    4.3865   -2.8645 C.ar    1  UNL1       -0.0203
     27 C          -4.0206    0.4889   -1.4737 C.3     1  UNL1        0.0788
     28 H          -1.6536    3.5731    1.3494 H       1  UNL1        0.2017
     29 H          -1.6666    2.0715    2.0928 H       1  UNL1        0.2017
     30 H           2.1628    1.9541    1.4025 H       1  UNL1        0.0302
     31 H           2.4318    0.2502    1.8546 H       1  UNL1        0.0302
     32 H           4.5711    1.3839    2.6045 H       1  UNL1        0.0293
     33 H           4.6591    2.7986    1.6388 H       1  UNL1        0.0293
     34 H           4.3502   -0.7715   -0.4928 H       1  UNL1        0.0293
     35 H           4.3659   -0.9840    1.2061 H       1  UNL1        0.0293
     36 H           1.3901    2.3979   -1.0246 H       1  UNL1        0.0296
     37 H           1.1131    0.9894   -2.0613 H       1  UNL1        0.0296
     38 H           6.8229    1.1982    2.1054 H       1  UNL1        0.0266
     39 H           6.6984    2.1260    0.6592 H       1  UNL1        0.0266
     40 H           6.4591    0.2056   -0.5690 H       1  UNL1        0.0266
     41 H           6.6986   -0.7233    0.8618 H       1  UNL1        0.0266
     42 H          -0.1653    0.2978    1.4221 H       1  UNL1        0.0326
     43 H          -0.7011    0.4874   -0.2413 H       1  UNL1        0.0326
     44 H           3.4315    0.4119   -1.9720 H       1  UNL1        0.0560
     45 H           3.2580    2.0824   -2.4997 H       1  UNL1        0.0560
     46 H           0.5232    2.6510    1.4429 H       1  UNL1        0.0814
     47 H          -0.0440    2.8230   -0.2040 H       1  UNL1        0.0814
     48 H           3.5465   -1.1804    0.1929 H       1  UNL1        0.0636
     49 H           3.5888   -3.5857   -0.2197 H       1  UNL1        0.0619
     50 H          -0.4734   -3.4255   -1.1367 H       1  UNL1        0.0829
     51 H          -3.5097    2.3126    0.6488 H       1  UNL1        0.0873
     52 H          -2.3960    1.0472    0.1264 H       1  UNL1        0.0873
     53 H           1.5362   -4.7193   -0.8968 H       1  UNL1        0.0633
     54 H          -2.5778    3.0313   -4.3651 H       1  UNL1        0.0659
     55 H          -1.6260    5.1911   -3.4510 H       1  UNL1        0.0694
     56 H          -4.3566   -0.4855   -1.7609 H       1  UNL1        0.0660
     57 H          -4.8663    1.1222   -1.3038 H       1  UNL1        0.0660
     58 H          -3.4429    0.4167   -0.5760 H       1  UNL1        0.0660
@<TRIPOS>UNITY_ATOM_ATTR
5 1
charge 1
@<TRIPOS>BOND
     1     1    23   ar
     2     1    26   ar
     3     2     6    1
     4     2    15    1
     5     3    24    1
     6     3    27    1
     7     4    16   ar
     8     4    20   ar
     9     5    17    1
    10     5    21    1
    11     5    28    1
    12     5    29    1
    13     6     8    1
    14     6     9    1
    15     6    10    1
    16     7     8    1
    17     7    11    1
    18     7    14    1
    19     7    16    1
    20     8    30    1
    21     8    31    1
    22     9    12    1
    23     9    32    1
    24     9    33    1
    25    10    13    1
    26    10    34    1
    27    10    35    1
    28    11    15    1
    29    11    36    1
    30    11    37    1
    31    12    13    1
    32    12    38    1
    33    12    39    1
    34    13    40    1
    35    13    41    1
    36    14    17    1
    37    14    42    1
    38    14    43    1
    39    15    44    1
    40    15    45    1
    41    16    18   ar
    42    17    46    1
    43    17    47    1
    44    18    19   ar
    45    18    48    1
    46    19    22   ar
    47    19    49    1
    48    20    22   ar
    49    20    50    1
    50    21    23    1
    51    21    51    1
    52    21    52    1
    53    22    53    1
    54    23    24   ar
    55    24    25   ar
    56    25    26   ar
    57    25    54    1
    58    26    55    1
    59    27    56    1
    60    27    57    1
    61    27    58    1
@<TRIPOS>MOLECULE
66553195
 58 61 0 0 0
SMALL
GASTEIGER

@<TRIPOS>ATOM
      1 S          -4.1891    1.0980    3.2846 S.2     1  UNL1       -0.0926
      2 O           3.9947    1.8338   -0.6210 O.3     1  UNL1       -0.3733
      3 O          -5.3497   -0.5723   -0.0023 O.3     1  UNL1       -0.4941
      4 N           2.6736   -1.5136   -0.6773 N.ar    1  UNL1       -0.2593
      5 N          -2.3798    0.6689   -0.0216 N.4     1  UNL1        0.2308
      6 C           3.9072    1.0510    0.5757 C.3     1  UNL1        0.0704
      7 C           1.4313    0.5057   -0.0051 C.3     1  UNL1        0.0224
      8 C           2.4527    0.9788    1.0713 C.3     1  UNL1       -0.0124
      9 C           4.8008    1.7382    1.6213 C.3     1  UNL1       -0.0237
     10 C           4.6231   -0.2974    0.4268 C.3     1  UNL1       -0.0237
     11 C           1.6850    1.3950   -1.2530 C.3     1  UNL1       -0.0181
     12 C           6.2268    1.3540    1.2306 C.3     1  UNL1       -0.0504
     13 C           6.1087    0.0588    0.4313 C.3     1  UNL1       -0.0504
     14 C          -0.0007    0.8133    0.4991 C.3     1  UNL1       -0.0013
     15 C           3.1485    1.4020   -1.6812 C.3     1  UNL1        0.0492
     16 C           1.4898   -1.0143   -0.2569 C.ar    1  UNL1        0.0478
     17 C          -1.0428    0.3538   -0.5107 C.3     1  UNL1       -0.0325
     18 C           0.3554   -1.7812   -0.0456 C.ar    1  UNL1       -0.0398
     19 C           0.4416   -3.1489   -0.2805 C.ar    1  UNL1       -0.0586
     20 C           2.7193   -2.8472   -0.8953 C.ar    1  UNL1        0.0279
     21 C          -2.6329    0.0163    1.2551 C.3     1  UNL1        0.0021
     22 C           1.6425   -3.6999   -0.7135 C.ar    1  UNL1       -0.0436
     23 C          -4.0153    0.3136    1.7725 C.ar    1  UNL1        0.0756
     24 C          -5.2329    0.0396    1.1892 C.ar    1  UNL1        0.1353
     25 C          -6.3228    0.4795    1.9945 C.ar    1  UNL1       -0.0124
     26 C          -5.8968    1.0730    3.1624 C.ar    1  UNL1       -0.0203
     27 C          -6.6729   -0.7871   -0.5131 C.3     1  UNL1        0.0788
     28 H          -3.0686    0.3491   -0.7026 H       1  UNL1        0.2017
     29 H          -2.4497    1.6782    0.1086 H       1  UNL1        0.2017
     30 H           2.1628    1.9541    1.4025 H       1  UNL1        0.0302
     31 H           2.4318    0.2502    1.8546 H       1  UNL1        0.0302
     32 H           4.5711    1.3839    2.6045 H       1  UNL1        0.0293
     33 H           4.6591    2.7986    1.6388 H       1  UNL1        0.0293
     34 H           4.3502   -0.7715   -0.4928 H       1  UNL1        0.0293
     35 H           4.3659   -0.9840    1.2061 H       1  UNL1        0.0293
     36 H           1.3901    2.3979   -1.0246 H       1  UNL1        0.0296
     37 H           1.1131    0.9894   -2.0613 H       1  UNL1        0.0296
     38 H           6.8229    1.1982    2.1054 H       1  UNL1        0.0266
     39 H           6.6984    2.1260    0.6592 H       1  UNL1        0.0266
     40 H           6.4591    0.2056   -0.5690 H       1  UNL1        0.0266
     41 H           6.6986   -0.7233    0.8618 H       1  UNL1        0.0266
     42 H          -0.1000    1.8680    0.6496 H       1  UNL1        0.0326
     43 H          -0.1599    0.2879    1.4175 H       1  UNL1        0.0326
     44 H           3.4315    0.4119   -1.9720 H       1  UNL1        0.0560
     45 H           3.2580    2.0824   -2.4997 H       1  UNL1        0.0560
     46 H          -0.8788    0.8537   -1.4425 H       1  UNL1        0.0814
     47 H          -0.9581   -0.7040   -0.6482 H       1  UNL1        0.0814
     48 H          -0.5258   -1.3509    0.2761 H       1  UNL1        0.0636
     49 H          -0.3824   -3.7527   -0.1341 H       1  UNL1        0.0619
     50 H           3.6111   -3.2550   -1.2169 H       1  UNL1        0.0829
     51 H          -1.9145    0.3619    1.9689 H       1  UNL1        0.0873
     52 H          -2.5533   -1.0407    1.1091 H       1  UNL1        0.0873
     53 H           1.7291   -4.7124   -0.8938 H       1  UNL1        0.0633
     54 H          -7.3149    0.3667    1.7335 H       1  UNL1        0.0659
     55 H          -6.5320    1.4573    3.8792 H       1  UNL1        0.0694
     56 H          -6.6136   -1.2796   -1.4612 H       1  UNL1        0.0660
     57 H          -7.1671    0.1547   -0.6307 H       1  UNL1        0.0660
     58 H          -7.2250   -1.3965    0.1715 H       1  UNL1        0.0660
@<TRIPOS>UNITY_ATOM_ATTR
5 1
charge 1
@<TRIPOS>BOND
     1     1    23   ar
     2     1    26   ar
     3     2     6    1
     4     2    15    1
     5     3    24    1
     6     3    27    1
     7     4    16   ar
     8     4    20   ar
     9     5    17    1
    10     5    21    1
    11     5    28    1
    12     5    29    1
    13     6     8    1
    14     6     9    1
    15     6    10    1
    16     7     8    1
    17     7    11    1
    18     7    14    1
    19     7    16    1
    20     8    30    1
    21     8    31    1
    22     9    12    1
    23     9    32    1
    24     9    33    1
    25    10    13    1
    26    10    34    1
    27    10    35    1
    28    11    15    1
    29    11    36    1
    30    11    37    1
    31    12    13    1
    32    12    38    1
    33    12    39    1
    34    13    40    1
    35    13    41    1
    36    14    17    1
    37    14    42    1
    38    14    43    1
    39    15    44    1
    40    15    45    1
    41    16    18   ar
    42    17    46    1
    43    17    47    1
    44    18    19   ar
    45    18    48    1
    46    19    22   ar
    47    19    49    1
    48    20    22   ar
    49    20    50    1
    50    21    23    1
    51    21    51    1
    52    21    52    1
    53    22    53    1
    54    23    24   ar
    55    24    25   ar
    56    25    26   ar
    57    25    54    1
    58    26    55    1
    59    27    56    1
    60    27    57    1
    61    27    58    1
@<TRIPOS>MOLECULE
66553195
 58 61 0 0 0
SMALL
GASTEIGER

@<TRIPOS>ATOM
      1 S           0.9059    4.4876    2.0722 S.2     1  UNL1       -0.0926
      2 O           3.9947    1.8338   -0.6210 O.3     1  UNL1       -0.3733
      3 O          -2.2699    5.3627    4.0942 O.3     1  UNL1       -0.4941
      4 N           0.3359   -1.6114   -0.6301 N.ar    1  UNL1       -0.2593
      5 N          -1.5373    2.5691    1.2118 N.4     1  UNL1        0.2308
      6 C           3.9072    1.0510    0.5757 C.3     1  UNL1        0.0704
      7 C           1.4313    0.5057   -0.0051 C.3     1  UNL1        0.0224
      8 C           2.4527    0.9788    1.0713 C.3     1  UNL1       -0.0124
      9 C           4.8008    1.7382    1.6213 C.3     1  UNL1       -0.0237
     10 C           4.6231   -0.2974    0.4268 C.3     1  UNL1       -0.0237
     11 C           1.6850    1.3950   -1.2530 C.3     1  UNL1       -0.0181
     12 C           6.2268    1.3540    1.2306 C.3     1  UNL1       -0.0504
     13 C           6.1087    0.0588    0.4313 C.3     1  UNL1       -0.0504
     14 C          -0.0007    0.8133    0.4991 C.3     1  UNL1       -0.0013
     15 C           3.1485    1.4020   -1.6812 C.3     1  UNL1        0.0492
     16 C           1.4898   -1.0143   -0.2569 C.ar    1  UNL1        0.0478
     17 C          -0.1891    2.3072    0.7222 C.3     1  UNL1       -0.0325
     18 C           2.6922   -1.6832   -0.0944 C.ar    1  UNL1       -0.0398
     19 C           2.7117   -3.0533   -0.3305 C.ar    1  UNL1       -0.0586
     20 C           0.3934   -2.9441   -0.8507 C.ar    1  UNL1        0.0279
     21 C          -1.7472    3.9952    1.4173 C.3     1  UNL1        0.0021
     22 C           1.5446   -3.7033   -0.7163 C.ar    1  UNL1       -0.0436
     23 C          -0.7708    4.5684    2.4098 C.ar    1  UNL1        0.0756
     24 C          -1.0262    5.1833    3.6159 C.ar    1  UNL1        0.1353
     25 C           0.1705    5.5934    4.2712 C.ar    1  UNL1       -0.0124
     26 C           1.2950    5.2766    3.5412 C.ar    1  UNL1       -0.0203
     27 C          -2.5048    6.5093    4.9237 C.3     1  UNL1        0.0788
     28 H          -1.6719    2.0807    2.0971 H       1  UNL1        0.2017
     29 H          -2.2066    2.2379    0.5170 H       1  UNL1        0.2017
     30 H           2.1628    1.9541    1.4025 H       1  UNL1        0.0302
     31 H           2.4318    0.2502    1.8546 H       1  UNL1        0.0302
     32 H           4.5711    1.3839    2.6045 H       1  UNL1        0.0293
     33 H           4.6591    2.7986    1.6388 H       1  UNL1        0.0293
     34 H           4.3502   -0.7715   -0.4928 H       1  UNL1        0.0293
     35 H           4.3659   -0.9840    1.2061 H       1  UNL1        0.0293
     36 H           1.3901    2.3979   -1.0246 H       1  UNL1        0.0296
     37 H           1.1131    0.9894   -2.0613 H       1  UNL1        0.0296
     38 H           6.8229    1.1982    2.1054 H       1  UNL1        0.0266
     39 H           6.6984    2.1260    0.6592 H       1  UNL1        0.0266
     40 H           6.4591    0.2056   -0.5690 H       1  UNL1        0.0266
     41 H           6.6986   -0.7233    0.8618 H       1  UNL1        0.0266
     42 H          -0.1653    0.2978    1.4221 H       1  UNL1        0.0326
     43 H          -0.7011    0.4874   -0.2413 H       1  UNL1        0.0326
     44 H           3.4315    0.4119   -1.9720 H       1  UNL1        0.0560
     45 H           3.2580    2.0824   -2.4997 H       1  UNL1        0.0560
     46 H           0.5232    2.6510    1.4429 H       1  UNL1        0.0814
     47 H          -0.0440    2.8230   -0.2040 H       1  UNL1        0.0814
     48 H           3.5465   -1.1804    0.1929 H       1  UNL1        0.0636
     49 H           3.5888   -3.5857   -0.2197 H       1  UNL1        0.0619
     50 H          -0.4734   -3.4255   -1.1367 H       1  UNL1        0.0829
     51 H          -2.7415    4.1498    1.7813 H       1  UNL1        0.0873
     52 H          -1.5983    4.4910    0.4809 H       1  UNL1        0.0873
     53 H           1.5362   -4.7193   -0.8968 H       1  UNL1        0.0633
     54 H           0.1925    6.0717    5.1855 H       1  UNL1        0.0659
     55 H           2.2583    5.4896    3.8440 H       1  UNL1        0.0694
     56 H          -3.5301    6.5241    5.2296 H       1  UNL1        0.0660
     57 H          -2.2841    7.3995    4.3726 H       1  UNL1        0.0660
     58 H          -1.8756    6.4594    5.7877 H       1  UNL1        0.0660
@<TRIPOS>UNITY_ATOM_ATTR
5 1
charge 1
@<TRIPOS>BOND
     1     1    23   ar
     2     1    26   ar
     3     2     6    1
     4     2    15    1
     5     3    24    1
     6     3    27    1
     7     4    16   ar
     8     4    20   ar
     9     5    17    1
    10     5    21    1
    11     5    28    1
    12     5    29    1
    13     6     8    1
    14     6     9    1
    15     6    10    1
    16     7     8    1
    17     7    11    1
    18     7    14    1
    19     7    16    1
    20     8    30    1
    21     8    31    1
    22     9    12    1
    23     9    32    1
    24     9    33    1
    25    10    13    1
    26    10    34    1
    27    10    35    1
    28    11    15    1
    29    11    36    1
    30    11    37    1
    31    12    13    1
    32    12    38    1
    33    12    39    1
    34    13    40    1
    35    13    41    1
    36    14    17    1
    37    14    42    1
    38    14    43    1
    39    15    44    1
    40    15    45    1
    41    16    18   ar
    42    17    46    1
    43    17    47    1
    44    18    19   ar
    45    18    48    1
    46    19    22   ar
    47    19    49    1
    48    20    22   ar
    49    20    50    1
    50    21    23    1
    51    21    51    1
    52    21    52    1
    53    22    53    1
    54    23    24   ar
    55    24    25   ar
    56    25    26   ar
    57    25    54    1
    58    26    55    1
    59    27    56    1
    60    27    57    1
    61    27    58    1
@<TRIPOS>MOLECULE
66553195
 58 61 0 0 0
SMALL
GASTEIGER

@<TRIPOS>ATOM
      1 S          -3.2990    5.0715    3.4531 S.2     1  UNL1       -0.0926
      2 O           3.9947    1.8338   -0.6210 O.3     1  UNL1       -0.3733
      3 O          -4.4669    3.4023    0.1683 O.3     1  UNL1       -0.4941
      4 N           1.8670   -1.7871    0.7861 N.ar    1  UNL1       -0.2593
      5 N          -1.5373    2.5691    1.2118 N.4     1  UNL1        0.2308
      6 C           3.9072    1.0510    0.5757 C.3     1  UNL1        0.0704
      7 C           1.4313    0.5057   -0.0051 C.3     1  UNL1        0.0224
      8 C           2.4527    0.9788    1.0713 C.3     1  UNL1       -0.0124
      9 C           4.8008    1.7382    1.6213 C.3     1  UNL1       -0.0237
     10 C           4.6231   -0.2974    0.4268 C.3     1  UNL1       -0.0237
     11 C           1.6850    1.3950   -1.2530 C.3     1  UNL1       -0.0181
     12 C           6.2268    1.3540    1.2306 C.3     1  UNL1       -0.0504
     13 C           6.1087    0.0588    0.4313 C.3     1  UNL1       -0.0504
     14 C          -0.0007    0.8133    0.4991 C.3     1  UNL1       -0.0013
     15 C           3.1485    1.4020   -1.6812 C.3     1  UNL1        0.0492
     16 C           1.4898   -1.0143   -0.2569 C.ar    1  UNL1        0.0478
     17 C          -0.1891    2.3072    0.7222 C.3     1  UNL1       -0.0325
     18 C           1.1606   -1.5078   -1.5090 C.ar    1  UNL1       -0.0398
     19 C           1.2221   -2.8832   -1.7031 C.ar    1  UNL1       -0.0586
     20 C           1.9154   -3.1192    0.5598 C.ar    1  UNL1        0.0279
     21 C          -1.7472    3.9952    1.4173 C.3     1  UNL1        0.0021
     22 C           1.6058   -3.7112   -0.6540 C.ar    1  UNL1       -0.0436
     23 C          -3.1285    4.2891    1.9396 C.ar    1  UNL1        0.0756
     24 C          -4.3475    4.0131    1.3601 C.ar    1  UNL1        0.1353
     25 C          -5.4356    4.4499    2.1695 C.ar    1  UNL1       -0.0124
     26 C          -5.0071    5.0430    3.3366 C.ar    1  UNL1       -0.0203
     27 C          -5.6071    3.7326   -0.6373 C.3     1  UNL1        0.0788
     28 H          -1.6719    2.0807    2.0971 H       1  UNL1        0.2017
     29 H          -2.2066    2.2379    0.5170 H       1  UNL1        0.2017
     30 H           2.1628    1.9541    1.4025 H       1  UNL1        0.0302
     31 H           2.4318    0.2502    1.8546 H       1  UNL1        0.0302
     32 H           4.5711    1.3839    2.6045 H       1  UNL1        0.0293
     33 H           4.6591    2.7986    1.6388 H       1  UNL1        0.0293
     34 H           4.3502   -0.7715   -0.4928 H       1  UNL1        0.0293
     35 H           4.3659   -0.9840    1.2061 H       1  UNL1        0.0293
     36 H           1.3901    2.3979   -1.0246 H       1  UNL1        0.0296
     37 H           1.1131    0.9894   -2.0613 H       1  UNL1        0.0296
     38 H           6.8229    1.1982    2.1054 H       1  UNL1        0.0266
     39 H           6.6984    2.1260    0.6592 H       1  UNL1        0.0266
     40 H           6.4591    0.2056   -0.5690 H       1  UNL1        0.0266
     41 H           6.6986   -0.7233    0.8618 H       1  UNL1        0.0266
     42 H          -0.1653    0.2978    1.4221 H       1  UNL1        0.0326
     43 H          -0.7011    0.4874   -0.2413 H       1  UNL1        0.0326
     44 H           3.4315    0.4119   -1.9720 H       1  UNL1        0.0560
     45 H           3.2580    2.0824   -2.4997 H       1  UNL1        0.0560
     46 H           0.5232    2.6510    1.4429 H       1  UNL1        0.0814
     47 H          -0.0440    2.8230   -0.2040 H       1  UNL1        0.0814
     48 H           0.8785   -0.8745   -2.2735 H       1  UNL1        0.0636
     49 H           0.9841   -3.2879   -2.6221 H       1  UNL1        0.0619
     50 H           2.2005   -3.7327    1.3391 H       1  UNL1        0.0829
     51 H          -1.6148    4.5025    0.4845 H       1  UNL1        0.0873
     52 H          -1.0386    4.3337    2.1441 H       1  UNL1        0.0873
     53 H           1.6582   -4.7347   -0.7756 H       1  UNL1        0.0633
     54 H          -6.4284    4.3353    1.9117 H       1  UNL1        0.0659
     55 H          -5.6407    5.4252    4.0559 H       1  UNL1        0.0694
     56 H          -5.5719    3.1757   -1.5504 H       1  UNL1        0.0660
     57 H          -5.5970    4.7797   -0.8575 H       1  UNL1        0.0660
     58 H          -6.5027    3.4886   -0.1051 H       1  UNL1        0.0660
@<TRIPOS>UNITY_ATOM_ATTR
5 1
charge 1
@<TRIPOS>BOND
     1     1    23   ar
     2     1    26   ar
     3     2     6    1
     4     2    15    1
     5     3    24    1
     6     3    27    1
     7     4    16   ar
     8     4    20   ar
     9     5    17    1
    10     5    21    1
    11     5    28    1
    12     5    29    1
    13     6     8    1
    14     6     9    1
    15     6    10    1
    16     7     8    1
    17     7    11    1
    18     7    14    1
    19     7    16    1
    20     8    30    1
    21     8    31    1
    22     9    12    1
    23     9    32    1
    24     9    33    1
    25    10    13    1
    26    10    34    1
    27    10    35    1
    28    11    15    1
    29    11    36    1
    30    11    37    1
    31    12    13    1
    32    12    38    1
    33    12    39    1
    34    13    40    1
    35    13    41    1
    36    14    17    1
    37    14    42    1
    38    14    43    1
    39    15    44    1
    40    15    45    1
    41    16    18   ar
    42    17    46    1
    43    17    47    1
    44    18    19   ar
    45    18    48    1
    46    19    22   ar
    47    19    49    1
    48    20    22   ar
    49    20    50    1
    50    21    23    1
    51    21    51    1
    52    21    52    1
    53    22    53    1
    54    23    24   ar
    55    24    25   ar
    56    25    26   ar
    57    25    54    1
    58    26    55    1
    59    27    56    1
    60    27    57    1
    61    27    58    1
@<TRIPOS>MOLECULE
66553195
 58 61 0 0 0
SMALL
GASTEIGER

@<TRIPOS>ATOM
      1 S          -5.2350    1.4501    0.2825 S.2     1  UNL1       -0.0926
      2 O           3.9947    1.8338   -0.6210 O.3     1  UNL1       -0.3733
      3 O          -3.4134    4.4329    1.9333 O.3     1  UNL1       -0.4941
      4 N           2.6736   -1.5136   -0.6773 N.ar    1  UNL1       -0.2593
      5 N          -2.3798    0.6689   -0.0216 N.4     1  UNL1        0.2308
      6 C           3.9072    1.0510    0.5757 C.3     1  UNL1        0.0704
      7 C           1.4313    0.5057   -0.0051 C.3     1  UNL1        0.0224
      8 C           2.4527    0.9788    1.0713 C.3     1  UNL1       -0.0124
      9 C           4.8008    1.7382    1.6213 C.3     1  UNL1       -0.0237
     10 C           4.6231   -0.2974    0.4268 C.3     1  UNL1       -0.0237
     11 C           1.6850    1.3950   -1.2530 C.3     1  UNL1       -0.0181
     12 C           6.2268    1.3540    1.2306 C.3     1  UNL1       -0.0504
     13 C           6.1087    0.0588    0.4313 C.3     1  UNL1       -0.0504
     14 C          -0.0007    0.8133    0.4991 C.3     1  UNL1       -0.0013
     15 C           3.1485    1.4020   -1.6812 C.3     1  UNL1        0.0492
     16 C           1.4898   -1.0143   -0.2569 C.ar    1  UNL1        0.0478
     17 C          -1.0428    0.3538   -0.5107 C.3     1  UNL1       -0.0325
     18 C           0.3554   -1.7812   -0.0456 C.ar    1  UNL1       -0.0398
     19 C           0.4416   -3.1489   -0.2805 C.ar    1  UNL1       -0.0586
     20 C           2.7193   -2.8472   -0.8953 C.ar    1  UNL1        0.0279
     21 C          -2.5388    2.1040    0.1669 C.3     1  UNL1        0.0021
     22 C           1.6425   -3.6999   -0.7135 C.ar    1  UNL1       -0.0436
     23 C          -3.9076    2.4526    0.6884 C.ar    1  UNL1        0.0756
     24 C          -4.2838    3.5107    1.4864 C.ar    1  UNL1        0.1353
     25 C          -5.6804    3.4979    1.7682 C.ar    1  UNL1       -0.0124
     26 C          -6.3183    2.4307    1.1751 C.ar    1  UNL1       -0.0203
     27 C          -2.2689    4.7184    1.1167 C.3     1  UNL1        0.0788
     28 H          -2.5293    0.1964    0.8698 H       1  UNL1        0.2017
     29 H          -3.0620    0.3531   -0.7110 H       1  UNL1        0.2017
     30 H           2.1628    1.9541    1.4025 H       1  UNL1        0.0302
     31 H           2.4318    0.2502    1.8546 H       1  UNL1        0.0302
     32 H           4.5711    1.3839    2.6045 H       1  UNL1        0.0293
     33 H           4.6591    2.7986    1.6388 H       1  UNL1        0.0293
     34 H           4.3502   -0.7715   -0.4928 H       1  UNL1        0.0293
     35 H           4.3659   -0.9840    1.2061 H       1  UNL1        0.0293
     36 H           1.3901    2.3979   -1.0246 H       1  UNL1        0.0296
     37 H           1.1131    0.9894   -2.0613 H       1  UNL1        0.0296
     38 H           6.8229    1.1982    2.1054 H       1  UNL1        0.0266
     39 H           6.6984    2.1260    0.6592 H       1  UNL1        0.0266
     40 H           6.4591    0.2056   -0.5690 H       1  UNL1        0.0266
     41 H           6.6986   -0.7233    0.8618 H       1  UNL1        0.0266
     42 H          -0.1000    1.8680    0.6496 H       1  UNL1        0.0326
     43 H          -0.1599    0.2879    1.4175 H       1  UNL1        0.0326
     44 H           3.4315    0.4119   -1.9720 H       1  UNL1        0.0560
     45 H           3.2580    2.0824   -2.4997 H       1  UNL1        0.0560
     46 H          -0.8788    0.8537   -1.4425 H       1  UNL1        0.0814
     47 H          -0.9581   -0.7040   -0.6482 H       1  UNL1        0.0814
     48 H          -0.5258   -1.3509    0.2761 H       1  UNL1        0.0636
     49 H          -0.3824   -3.7527   -0.1341 H       1  UNL1        0.0619
     50 H           3.6111   -3.2550   -1.2169 H       1  UNL1        0.0829
     51 H          -2.3909    2.5950   -0.7723 H       1  UNL1        0.0873
     52 H          -1.8169    2.4261    0.8880 H       1  UNL1        0.0873
     53 H           1.7291   -4.7124   -0.8938 H       1  UNL1        0.0633
     54 H          -6.1579    4.2052    2.3486 H       1  UNL1        0.0659
     55 H          -7.3298    2.2442    1.2589 H       1  UNL1        0.0694
     56 H          -1.6685    5.4652    1.5928 H       1  UNL1        0.0660
     57 H          -2.5926    5.0763    0.1616 H       1  UNL1        0.0660
     58 H          -1.6921    3.8266    0.9867 H       1  UNL1        0.0660
@<TRIPOS>UNITY_ATOM_ATTR
5 1
charge 1
@<TRIPOS>BOND
     1     1    23   ar
     2     1    26   ar
     3     2     6    1
     4     2    15    1
     5     3    24    1
     6     3    27    1
     7     4    16   ar
     8     4    20   ar
     9     5    17    1
    10     5    21    1
    11     5    28    1
    12     5    29    1
    13     6     8    1
    14     6     9    1
    15     6    10    1
    16     7     8    1
    17     7    11    1
    18     7    14    1
    19     7    16    1
    20     8    30    1
    21     8    31    1
    22     9    12    1
    23     9    32    1
    24     9    33    1
    25    10    13    1
    26    10    34    1
    27    10    35    1
    28    11    15    1
    29    11    36    1
    30    11    37    1
    31    12    13    1
    32    12    38    1
    33    12    39    1
    34    13    40    1
    35    13    41    1
    36    14    17    1
    37    14    42    1
    38    14    43    1
    39    15    44    1
    40    15    45    1
    41    16    18   ar
    42    17    46    1
    43    17    47    1
    44    18    19   ar
    45    18    48    1
    46    19    22   ar
    47    19    49    1
    48    20    22   ar
    49    20    50    1
    50    21    23    1
    51    21    51    1
    52    21    52    1
    53    22    53    1
    54    23    24   ar
    55    24    25   ar
    56    25    26   ar
    57    25    54    1
    58    26    55    1
    59    27    56    1
    60    27    57    1
    61    27    58    1
@<TRIPOS>MOLECULE
66553195
 58 61 0 0 0
SMALL
GASTEIGER

@<TRIPOS>ATOM
      1 S          -2.1181   -0.4797    4.4198 S.2     1  UNL1       -0.0926
      2 O           3.9947    1.8338   -0.6210 O.3     1  UNL1       -0.3733
      3 O          -2.9698   -3.5826    2.2781 O.3     1  UNL1       -0.4941
      4 N           2.6863   -1.6142   -0.0673 N.ar    1  UNL1       -0.2593
      5 N          -0.1319   -1.3376    1.6429 N.4     1  UNL1        0.2308
      6 C           3.9072    1.0510    0.5757 C.3     1  UNL1        0.0704
      7 C           1.4313    0.5057   -0.0051 C.3     1  UNL1        0.0224
      8 C           2.4527    0.9788    1.0713 C.3     1  UNL1       -0.0124
      9 C           4.8008    1.7382    1.6213 C.3     1  UNL1       -0.0237
     10 C           4.6231   -0.2974    0.4268 C.3     1  UNL1       -0.0237
     11 C           1.6850    1.3950   -1.2530 C.3     1  UNL1       -0.0181
     12 C           6.2268    1.3540    1.2306 C.3     1  UNL1       -0.0504
     13 C           6.1087    0.0588    0.4313 C.3     1  UNL1       -0.0504
     14 C          -0.0007    0.8133    0.4991 C.3     1  UNL1       -0.0013
     15 C           3.1485    1.4020   -1.6812 C.3     1  UNL1        0.0492
     16 C           1.4898   -1.0143   -0.2569 C.ar    1  UNL1        0.0478
     17 C          -0.2774    0.1027    1.8165 C.3     1  UNL1       -0.0325
     18 C           0.3423   -1.6807   -0.6553 C.ar    1  UNL1       -0.0398
     19 C           0.4282   -3.0513   -0.8728 C.ar    1  UNL1       -0.0586
     20 C           2.7313   -2.9472   -0.2884 C.ar    1  UNL1        0.0279
     21 C          -0.4083   -2.0412    2.8874 C.3     1  UNL1        0.0021
     22 C           1.6418   -3.7042   -0.6880 C.ar    1  UNL1       -0.0436
     23 C          -1.8137   -1.7971    3.3693 C.ar    1  UNL1        0.0756
     24 C          -2.9600   -2.5055    3.0828 C.ar    1  UNL1        0.1353
     25 C          -4.1031   -1.9593    3.7345 C.ar    1  UNL1       -0.0124
     26 C          -3.7873   -0.8544    4.4941 C.ar    1  UNL1       -0.0203
     27 C          -4.2303   -4.2258    2.0427 C.3     1  UNL1        0.0788
     28 H           0.8224   -1.5438    1.3475 H       1  UNL1        0.2017
     29 H          -0.7985   -1.6499    0.9369 H       1  UNL1        0.2017
     30 H           2.1628    1.9541    1.4025 H       1  UNL1        0.0302
     31 H           2.4318    0.2502    1.8546 H       1  UNL1        0.0302
     32 H           4.5711    1.3839    2.6045 H       1  UNL1        0.0293
     33 H           4.6591    2.7986    1.6388 H       1  UNL1        0.0293
     34 H           4.3502   -0.7715   -0.4928 H       1  UNL1        0.0293
     35 H           4.3659   -0.9840    1.2061 H       1  UNL1        0.0293
     36 H           1.3901    2.3979   -1.0246 H       1  UNL1        0.0296
     37 H           1.1131    0.9894   -2.0613 H       1  UNL1        0.0296
     38 H           6.8229    1.1982    2.1054 H       1  UNL1        0.0266
     39 H           6.6984    2.1260    0.6592 H       1  UNL1        0.0266
     40 H           6.4591    0.2056   -0.5690 H       1  UNL1        0.0266
     41 H           6.6986   -0.7233    0.8618 H       1  UNL1        0.0266
     42 H          -0.7081    0.4828   -0.2325 H       1  UNL1        0.0326
     43 H          -0.0890    1.8682    0.6548 H       1  UNL1        0.0326
     44 H           3.4315    0.4119   -1.9720 H       1  UNL1        0.0560
     45 H           3.2580    2.0824   -2.4997 H       1  UNL1        0.0560
     46 H           0.4171    0.4430    2.5560 H       1  UNL1        0.0814
     47 H          -1.2765    0.3206    2.1315 H       1  UNL1        0.0814
     48 H          -0.5482   -1.1758   -0.7865 H       1  UNL1        0.0636
     49 H          -0.4055   -3.5819   -1.1703 H       1  UNL1        0.0619
     50 H           3.6327   -3.4307   -0.1512 H       1  UNL1        0.0829
     51 H           0.2778   -1.7033    3.6357 H       1  UNL1        0.0873
     52 H          -0.2964   -3.0901    2.7076 H       1  UNL1        0.0873
     53 H           1.7283   -4.7207   -0.8435 H       1  UNL1        0.0633
     54 H          -5.0560   -2.3461    3.6476 H       1  UNL1        0.0659
     55 H          -4.4754   -0.3159    5.0431 H       1  UNL1        0.0694
     56 H          -4.0879   -5.0612    1.3894 H       1  UNL1        0.0660
     57 H          -4.9066   -3.5306    1.5907 H       1  UNL1        0.0660
     58 H          -4.6366   -4.5654    2.9725 H       1  UNL1        0.0660
@<TRIPOS>UNITY_ATOM_ATTR
5 1
charge 1
@<TRIPOS>BOND
     1     1    23   ar
     2     1    26   ar
     3     2     6    1
     4     2    15    1
     5     3    24    1
     6     3    27    1
     7     4    16   ar
     8     4    20   ar
     9     5    17    1
    10     5    21    1
    11     5    28    1
    12     5    29    1
    13     6     8    1
    14     6     9    1
    15     6    10    1
    16     7     8    1
    17     7    11    1
    18     7    14    1
    19     7    16    1
    20     8    30    1
    21     8    31    1
    22     9    12    1
    23     9    32    1
    24     9    33    1
    25    10    13    1
    26    10    34    1
    27    10    35    1
    28    11    15    1
    29    11    36    1
    30    11    37    1
    31    12    13    1
    32    12    38    1
    33    12    39    1
    34    13    40    1
    35    13    41    1
    36    14    17    1
    37    14    42    1
    38    14    43    1
    39    15    44    1
    40    15    45    1
    41    16    18   ar
    42    17    46    1
    43    17    47    1
    44    18    19   ar
    45    18    48    1
    46    19    22   ar
    47    19    49    1
    48    20    22   ar
    49    20    50    1
    50    21    23    1
    51    21    51    1
    52    21    52    1
    53    22    53    1
    54    23    24   ar
    55    24    25   ar
    56    25    26   ar
    57    25    54    1
    58    26    55    1
    59    27    56    1
    60    27    57    1
    61    27    58    1
@<TRIPOS>MOLECULE
66553195
 58 61 0 0 0
SMALL
GASTEIGER

@<TRIPOS>ATOM
      1 S          -2.1181   -0.4797    4.4198 S.2     1  UNL1       -0.0926
      2 O           3.9947    1.8338   -0.6210 O.3     1  UNL1       -0.3733
      3 O          -2.9698   -3.5826    2.2781 O.3     1  UNL1       -0.4941
      4 N           2.3917   -1.7141    0.4672 N.ar    1  UNL1       -0.2593
      5 N          -0.1319   -1.3376    1.6429 N.4     1  UNL1        0.2308
      6 C           3.9072    1.0510    0.5757 C.3     1  UNL1        0.0704
      7 C           1.4313    0.5057   -0.0051 C.3     1  UNL1        0.0224
      8 C           2.4527    0.9788    1.0713 C.3     1  UNL1       -0.0124
      9 C           4.8008    1.7382    1.6213 C.3     1  UNL1       -0.0237
     10 C           4.6231   -0.2974    0.4268 C.3     1  UNL1       -0.0237
     11 C           1.6850    1.3950   -1.2530 C.3     1  UNL1       -0.0181
     12 C           6.2268    1.3540    1.2306 C.3     1  UNL1       -0.0504
     13 C           6.1087    0.0588    0.4313 C.3     1  UNL1       -0.0504
     14 C          -0.0007    0.8133    0.4991 C.3     1  UNL1       -0.0013
     15 C           3.1485    1.4020   -1.6812 C.3     1  UNL1        0.0492
     16 C           1.4898   -1.0143   -0.2569 C.ar    1  UNL1        0.0478
     17 C          -0.2774    0.1027    1.8165 C.3     1  UNL1       -0.0325
     18 C           0.6363   -1.5809   -1.1898 C.ar    1  UNL1       -0.0398
     19 C           0.7132   -2.9543   -1.3924 C.ar    1  UNL1       -0.0586
     20 C           2.4377   -3.0466    0.2430 C.ar    1  UNL1        0.0279
     21 C          -0.4083   -2.0412    2.8874 C.3     1  UNL1        0.0021
     22 C           1.6284   -3.7083   -0.6662 C.ar    1  UNL1       -0.0436
     23 C          -1.8137   -1.7971    3.3693 C.ar    1  UNL1        0.0756
     24 C          -2.9600   -2.5055    3.0828 C.ar    1  UNL1        0.1353
     25 C          -4.1031   -1.9593    3.7345 C.ar    1  UNL1       -0.0124
     26 C          -3.7873   -0.8544    4.4941 C.ar    1  UNL1       -0.0203
     27 C          -1.9903   -3.6402    1.2315 C.3     1  UNL1        0.0788
     28 H           0.8224   -1.5438    1.3475 H       1  UNL1        0.2017
     29 H          -0.7985   -1.6499    0.9369 H       1  UNL1        0.2017
     30 H           2.1628    1.9541    1.4025 H       1  UNL1        0.0302
     31 H           2.4318    0.2502    1.8546 H       1  UNL1        0.0302
     32 H           4.5711    1.3839    2.6045 H       1  UNL1        0.0293
     33 H           4.6591    2.7986    1.6388 H       1  UNL1        0.0293
     34 H           4.3502   -0.7715   -0.4928 H       1  UNL1        0.0293
     35 H           4.3659   -0.9840    1.2061 H       1  UNL1        0.0293
     36 H           1.3901    2.3979   -1.0246 H       1  UNL1        0.0296
     37 H           1.1131    0.9894   -2.0613 H       1  UNL1        0.0296
     38 H           6.8229    1.1982    2.1054 H       1  UNL1        0.0266
     39 H           6.6984    2.1260    0.6592 H       1  UNL1        0.0266
     40 H           6.4591    0.2056   -0.5690 H       1  UNL1        0.0266
     41 H           6.6986   -0.7233    0.8618 H       1  UNL1        0.0266
     42 H          -0.7081    0.4828   -0.2325 H       1  UNL1        0.0326
     43 H          -0.0890    1.8682    0.6548 H       1  UNL1        0.0326
     44 H           3.4315    0.4119   -1.9720 H       1  UNL1        0.0560
     45 H           3.2580    2.0824   -2.4997 H       1  UNL1        0.0560
     46 H           0.4171    0.4430    2.5560 H       1  UNL1        0.0814
     47 H          -1.2765    0.3206    2.1315 H       1  UNL1        0.0814
     48 H          -0.0353   -1.0018   -1.7176 H       1  UNL1        0.0636
     49 H           0.0936   -3.4122   -2.0789 H       1  UNL1        0.0619
     50 H           3.1175   -3.6052    0.7823 H       1  UNL1        0.0829
     51 H           0.2778   -1.7033    3.6357 H       1  UNL1        0.0873
     52 H          -0.2964   -3.0901    2.7076 H       1  UNL1        0.0873
     53 H           1.7024   -4.7289   -0.8004 H       1  UNL1        0.0633
     54 H          -5.0560   -2.3461    3.6476 H       1  UNL1        0.0659
     55 H          -4.4754   -0.3159    5.0431 H       1  UNL1        0.0694
     56 H          -2.1158   -4.5455    0.6751 H       1  UNL1        0.0660
     57 H          -1.0097   -3.6172    1.6591 H       1  UNL1        0.0660
     58 H          -2.1150   -2.8009    0.5797 H       1  UNL1        0.0660
@<TRIPOS>UNITY_ATOM_ATTR
5 1
charge 1
@<TRIPOS>BOND
     1     1    23   ar
     2     1    26   ar
     3     2     6    1
     4     2    15    1
     5     3    24    1
     6     3    27    1
     7     4    16   ar
     8     4    20   ar
     9     5    17    1
    10     5    21    1
    11     5    28    1
    12     5    29    1
    13     6     8    1
    14     6     9    1
    15     6    10    1
    16     7     8    1
    17     7    11    1
    18     7    14    1
    19     7    16    1
    20     8    30    1
    21     8    31    1
    22     9    12    1
    23     9    32    1
    24     9    33    1
    25    10    13    1
    26    10    34    1
    27    10    35    1
    28    11    15    1
    29    11    36    1
    30    11    37    1
    31    12    13    1
    32    12    38    1
    33    12    39    1
    34    13    40    1
    35    13    41    1
    36    14    17    1
    37    14    42    1
    38    14    43    1
    39    15    44    1
    40    15    45    1
    41    16    18   ar
    42    17    46    1
    43    17    47    1
    44    18    19   ar
    45    18    48    1
    46    19    22   ar
    47    19    49    1
    48    20    22   ar
    49    20    50    1
    50    21    23    1
    51    21    51    1
    52    21    52    1
    53    22    53    1
    54    23    24   ar
    55    24    25   ar
    56    25    26   ar
    57    25    54    1
    58    26    55    1
    59    27    56    1
    60    27    57    1
    61    27    58    1
@<TRIPOS>MOLECULE
66553195
 58 61 0 0 0
SMALL
GASTEIGER

@<TRIPOS>ATOM
      1 S          -5.2858    2.0165   -0.2294 S.2     1  UNL1       -0.0926
      2 O           3.9947    1.8338   -0.6210 O.3     1  UNL1       -0.3733
      3 O          -3.3338    3.5425    2.7373 O.3     1  UNL1       -0.4941
      4 N           1.1728   -1.4348   -1.5019 N.ar    1  UNL1       -0.2593
      5 N          -2.3798    0.6689   -0.0216 N.4     1  UNL1        0.2308
      6 C           3.9072    1.0510    0.5757 C.3     1  UNL1        0.0704
      7 C           1.4313    0.5057   -0.0051 C.3     1  UNL1        0.0224
      8 C           2.4527    0.9788    1.0713 C.3     1  UNL1       -0.0124
      9 C           4.8008    1.7382    1.6213 C.3     1  UNL1       -0.0237
     10 C           4.6231   -0.2974    0.4268 C.3     1  UNL1       -0.0237
     11 C           1.6850    1.3950   -1.2530 C.3     1  UNL1       -0.0181
     12 C           6.2268    1.3540    1.2306 C.3     1  UNL1       -0.0504
     13 C           6.1087    0.0588    0.4313 C.3     1  UNL1       -0.0504
     14 C          -0.0007    0.8133    0.4991 C.3     1  UNL1       -0.0013
     15 C           3.1485    1.4020   -1.6812 C.3     1  UNL1        0.0492
     16 C           1.4898   -1.0143   -0.2569 C.ar    1  UNL1        0.0478
     17 C          -1.0428    0.3538   -0.5107 C.3     1  UNL1       -0.0325
     18 C           1.8563   -1.8599    0.7777 C.ar    1  UNL1       -0.0398
     19 C           1.9006   -3.2250    0.5177 C.ar    1  UNL1       -0.0586
     20 C           1.2269   -2.7685   -1.7172 C.ar    1  UNL1        0.0279
     21 C          -2.5388    2.1040    0.1669 C.3     1  UNL1        0.0021
     22 C           1.5815   -3.6961   -0.7510 C.ar    1  UNL1       -0.0436
     23 C          -3.9076    2.4526    0.6884 C.ar    1  UNL1        0.0756
     24 C          -4.2475    3.1040    1.8538 C.ar    1  UNL1        0.1353
     25 C          -5.6580    3.2467    1.9949 C.ar    1  UNL1       -0.0124
     26 C          -6.3425    2.6991    0.9322 C.ar    1  UNL1       -0.0203
     27 C          -3.6592    4.7082    3.5077 C.3     1  UNL1        0.0788
     28 H          -2.5293    0.1964    0.8698 H       1  UNL1        0.2017
     29 H          -3.0620    0.3531   -0.7110 H       1  UNL1        0.2017
     30 H           2.1628    1.9541    1.4025 H       1  UNL1        0.0302
     31 H           2.4318    0.2502    1.8546 H       1  UNL1        0.0302
     32 H           4.5711    1.3839    2.6045 H       1  UNL1        0.0293
     33 H           4.6591    2.7986    1.6388 H       1  UNL1        0.0293
     34 H           4.3502   -0.7715   -0.4928 H       1  UNL1        0.0293
     35 H           4.3659   -0.9840    1.2061 H       1  UNL1        0.0293
     36 H           1.3901    2.3979   -1.0246 H       1  UNL1        0.0296
     37 H           1.1131    0.9894   -2.0613 H       1  UNL1        0.0296
     38 H           6.8229    1.1982    2.1054 H       1  UNL1        0.0266
     39 H           6.6984    2.1260    0.6592 H       1  UNL1        0.0266
     40 H           6.4591    0.2056   -0.5690 H       1  UNL1        0.0266
     41 H           6.6986   -0.7233    0.8618 H       1  UNL1        0.0266
     42 H          -0.1000    1.8680    0.6496 H       1  UNL1        0.0326
     43 H          -0.1599    0.2879    1.4175 H       1  UNL1        0.0326
     44 H           3.4315    0.4119   -1.9720 H       1  UNL1        0.0560
     45 H           3.2580    2.0824   -2.4997 H       1  UNL1        0.0560
     46 H          -0.8788    0.8537   -1.4425 H       1  UNL1        0.0814
     47 H          -0.9581   -0.7040   -0.6482 H       1  UNL1        0.0814
     48 H           2.0890   -1.4881    1.7119 H       1  UNL1        0.0636
     49 H           2.1692   -3.8860    1.2633 H       1  UNL1        0.0619
     50 H           0.9896   -3.1170   -2.6591 H       1  UNL1        0.0829
     51 H          -2.3909    2.5950   -0.7723 H       1  UNL1        0.0873
     52 H          -1.8169    2.4261    0.8880 H       1  UNL1        0.0873
     53 H           1.6078   -4.7050   -0.9662 H       1  UNL1        0.0633
     54 H          -6.1135    3.7064    2.7988 H       1  UNL1        0.0659
     55 H          -7.3709    2.7001    0.8463 H       1  UNL1        0.0694
     56 H          -2.8465    4.9403    4.1639 H       1  UNL1        0.0660
     57 H          -4.5407    4.5201    4.0843 H       1  UNL1        0.0660
     58 H          -3.8329    5.5337    2.8494 H       1  UNL1        0.0660
@<TRIPOS>UNITY_ATOM_ATTR
5 1
charge 1
@<TRIPOS>BOND
     1     1    23   ar
     2     1    26   ar
     3     2     6    1
     4     2    15    1
     5     3    24    1
     6     3    27    1
     7     4    16   ar
     8     4    20   ar
     9     5    17    1
    10     5    21    1
    11     5    28    1
    12     5    29    1
    13     6     8    1
    14     6     9    1
    15     6    10    1
    16     7     8    1
    17     7    11    1
    18     7    14    1
    19     7    16    1
    20     8    30    1
    21     8    31    1
    22     9    12    1
    23     9    32    1
    24     9    33    1
    25    10    13    1
    26    10    34    1
    27    10    35    1
    28    11    15    1
    29    11    36    1
    30    11    37    1
    31    12    13    1
    32    12    38    1
    33    12    39    1
    34    13    40    1
    35    13    41    1
    36    14    17    1
    37    14    42    1
    38    14    43    1
    39    15    44    1
    40    15    45    1
    41    16    18   ar
    42    17    46    1
    43    17    47    1
    44    18    19   ar
    45    18    48    1
    46    19    22   ar
    47    19    49    1
    48    20    22   ar
    49    20    50    1
    50    21    23    1
    51    21    51    1
    52    21    52    1
    53    22    53    1
    54    23    24   ar
    55    24    25   ar
    56    25    26   ar
    57    25    54    1
    58    26    55    1
    59    27    56    1
    60    27    57    1
    61    27    58    1
@<TRIPOS>MOLECULE
66553195
 58 61 0 0 0
SMALL
GASTEIGER

@<TRIPOS>ATOM
      1 S          -4.2810    0.3597    3.4634 S.2     1  UNL1       -0.0926
      2 O           3.9947    1.8338   -0.6210 O.3     1  UNL1       -0.3733
      3 O          -5.2051    0.5879   -0.2828 O.3     1  UNL1       -0.4941
      4 N           0.6441   -1.5069   -1.1894 N.ar    1  UNL1       -0.2593
      5 N          -2.3798    0.6689   -0.0216 N.4     1  UNL1        0.2308
      6 C           3.9072    1.0510    0.5757 C.3     1  UNL1        0.0704
      7 C           1.4313    0.5057   -0.0051 C.3     1  UNL1        0.0224
      8 C           2.4527    0.9788    1.0713 C.3     1  UNL1       -0.0124
      9 C           4.8008    1.7382    1.6213 C.3     1  UNL1       -0.0237
     10 C           4.6231   -0.2974    0.4268 C.3     1  UNL1       -0.0237
     11 C           1.6850    1.3950   -1.2530 C.3     1  UNL1       -0.0181
     12 C           6.2268    1.3540    1.2306 C.3     1  UNL1       -0.0504
     13 C           6.1087    0.0588    0.4313 C.3     1  UNL1       -0.0504
     14 C          -0.0007    0.8133    0.4991 C.3     1  UNL1       -0.0013
     15 C           3.1485    1.4020   -1.6812 C.3     1  UNL1        0.0492
     16 C           1.4898   -1.0143   -0.2569 C.ar    1  UNL1        0.0478
     17 C          -1.0428    0.3538   -0.5107 C.3     1  UNL1       -0.0325
     18 C           2.3845   -1.7877    0.4649 C.ar    1  UNL1       -0.0398
     19 C           2.4134   -3.1548    0.2132 C.ar    1  UNL1       -0.0586
     20 C           0.7007   -2.8401   -1.4068 C.ar    1  UNL1        0.0279
     21 C          -2.6329    0.0163    1.2551 C.3     1  UNL1        0.0021
     22 C           1.5587   -3.6989   -0.7390 C.ar    1  UNL1       -0.0436
     23 C          -4.0153    0.3136    1.7725 C.ar    1  UNL1        0.0756
     24 C          -5.1669    0.5696    1.0610 C.ar    1  UNL1        0.1353
     25 C          -6.2819    0.8067    1.9156 C.ar    1  UNL1       -0.0124
     26 C          -5.9403    0.7230    3.2475 C.ar    1  UNL1       -0.0203
     27 C          -6.4615    0.8839   -0.9087 C.3     1  UNL1        0.0788
     28 H          -3.0686    0.3491   -0.7026 H       1  UNL1        0.2017
     29 H          -2.4497    1.6782    0.1086 H       1  UNL1        0.2017
     30 H           2.1628    1.9541    1.4025 H       1  UNL1        0.0302
     31 H           2.4318    0.2502    1.8546 H       1  UNL1        0.0302
     32 H           4.5711    1.3839    2.6045 H       1  UNL1        0.0293
     33 H           4.6591    2.7986    1.6388 H       1  UNL1        0.0293
     34 H           4.3502   -0.7715   -0.4928 H       1  UNL1        0.0293
     35 H           4.3659   -0.9840    1.2061 H       1  UNL1        0.0293
     36 H           1.3901    2.3979   -1.0246 H       1  UNL1        0.0296
     37 H           1.1131    0.9894   -2.0613 H       1  UNL1        0.0296
     38 H           6.8229    1.1982    2.1054 H       1  UNL1        0.0266
     39 H           6.6984    2.1260    0.6592 H       1  UNL1        0.0266
     40 H           6.4591    0.2056   -0.5690 H       1  UNL1        0.0266
     41 H           6.6986   -0.7233    0.8618 H       1  UNL1        0.0266
     42 H          -0.1000    1.8680    0.6496 H       1  UNL1        0.0326
     43 H          -0.1599    0.2879    1.4175 H       1  UNL1        0.0326
     44 H           3.4315    0.4119   -1.9720 H       1  UNL1        0.0560
     45 H           3.2580    2.0824   -2.4997 H       1  UNL1        0.0560
     46 H          -0.8788    0.8537   -1.4425 H       1  UNL1        0.0814
     47 H          -0.9581   -0.7040   -0.6482 H       1  UNL1        0.0814
     48 H           3.0098   -1.3625    1.1673 H       1  UNL1        0.0636
     49 H           3.0665   -3.7633    0.7311 H       1  UNL1        0.0619
     50 H           0.0657   -3.2429   -2.1136 H       1  UNL1        0.0829
     51 H          -1.9145    0.3619    1.9689 H       1  UNL1        0.0873
     52 H          -2.5533   -1.0407    1.1091 H       1  UNL1        0.0873
     53 H           1.5633   -4.7108   -0.9420 H       1  UNL1        0.0633
     54 H          -7.2339    1.0165    1.5766 H       1  UNL1        0.0659
     55 H          -6.6059    0.8628    4.0236 H       1  UNL1        0.0694
     56 H          -6.3437    0.8640   -1.9721 H       1  UNL1        0.0660
     57 H          -6.7915    1.8553   -0.6045 H       1  UNL1        0.0660
     58 H          -7.1865    0.1532   -0.6165 H       1  UNL1        0.0660
@<TRIPOS>UNITY_ATOM_ATTR
5 1
charge 1
@<TRIPOS>BOND
     1     1    23   ar
     2     1    26   ar
     3     2     6    1
     4     2    15    1
     5     3    24    1
     6     3    27    1
     7     4    16   ar
     8     4    20   ar
     9     5    17    1
    10     5    21    1
    11     5    28    1
    12     5    29    1
    13     6     8    1
    14     6     9    1
    15     6    10    1
    16     7     8    1
    17     7    11    1
    18     7    14    1
    19     7    16    1
    20     8    30    1
    21     8    31    1
    22     9    12    1
    23     9    32    1
    24     9    33    1
    25    10    13    1
    26    10    34    1
    27    10    35    1
    28    11    15    1
    29    11    36    1
    30    11    37    1
    31    12    13    1
    32    12    38    1
    33    12    39    1
    34    13    40    1
    35    13    41    1
    36    14    17    1
    37    14    42    1
    38    14    43    1
    39    15    44    1
    40    15    45    1
    41    16    18   ar
    42    17    46    1
    43    17    47    1
    44    18    19   ar
    45    18    48    1
    46    19    22   ar
    47    19    49    1
    48    20    22   ar
    49    20    50    1
    50    21    23    1
    51    21    51    1
    52    21    52    1
    53    22    53    1
    54    23    24   ar
    55    24    25   ar
    56    25    26   ar
    57    25    54    1
    58    26    55    1
    59    27    56    1
    60    27    57    1
    61    27    58    1
@<TRIPOS>MOLECULE
66553195
 58 61 0 0 0
SMALL
GASTEIGER

@<TRIPOS>ATOM
      1 S          -0.4111   -0.3814    3.3129 S.2     1  UNL1       -0.0926
      2 O           3.9947    1.8338   -0.6210 O.3     1  UNL1       -0.3733
      3 O          -3.2659   -0.1026    0.7221 O.3     1  UNL1       -0.4941
      4 N           0.3359   -1.6114   -0.6301 N.ar    1  UNL1       -0.2593
      5 N          -1.5373    2.5691    1.2118 N.4     1  UNL1        0.2308
      6 C           3.9072    1.0510    0.5757 C.3     1  UNL1        0.0704
      7 C           1.4313    0.5057   -0.0051 C.3     1  UNL1        0.0224
      8 C           2.4527    0.9788    1.0713 C.3     1  UNL1       -0.0124
      9 C           4.8008    1.7382    1.6213 C.3     1  UNL1       -0.0237
     10 C           4.6231   -0.2974    0.4268 C.3     1  UNL1       -0.0237
     11 C           1.6850    1.3950   -1.2530 C.3     1  UNL1       -0.0181
     12 C           6.2268    1.3540    1.2306 C.3     1  UNL1       -0.0504
     13 C           6.1087    0.0588    0.4313 C.3     1  UNL1       -0.0504
     14 C          -0.0007    0.8133    0.4991 C.3     1  UNL1       -0.0013
     15 C           3.1485    1.4020   -1.6812 C.3     1  UNL1        0.0492
     16 C           1.4898   -1.0143   -0.2569 C.ar    1  UNL1        0.0478
     17 C          -0.1891    2.3072    0.7222 C.3     1  UNL1       -0.0325
     18 C           2.6922   -1.6832   -0.0944 C.ar    1  UNL1       -0.0398
     19 C           2.7117   -3.0533   -0.3305 C.ar    1  UNL1       -0.0586
     20 C           0.3934   -2.9441   -0.8507 C.ar    1  UNL1        0.0279
     21 C          -1.7699    1.8924    2.4800 C.3     1  UNL1        0.0021
     22 C           1.5446   -3.7033   -0.7163 C.ar    1  UNL1       -0.0436
     23 C          -1.5985    0.4014    2.3595 C.ar    1  UNL1        0.0756
     24 C          -2.2849   -0.4846    1.5584 C.ar    1  UNL1        0.1353
     25 C          -1.8297   -1.8238    1.7298 C.ar    1  UNL1       -0.0124
     26 C          -0.8130   -1.9104    2.6553 C.ar    1  UNL1       -0.0203
     27 C          -3.1928    1.2197    0.1707 C.3     1  UNL1        0.0788
     28 H          -2.2130    2.2335    0.5254 H       1  UNL1        0.2017
     29 H          -1.6431    3.5736    1.3541 H       1  UNL1        0.2017
     30 H           2.1628    1.9541    1.4025 H       1  UNL1        0.0302
     31 H           2.4318    0.2502    1.8546 H       1  UNL1        0.0302
     32 H           4.5711    1.3839    2.6045 H       1  UNL1        0.0293
     33 H           4.6591    2.7986    1.6388 H       1  UNL1        0.0293
     34 H           4.3502   -0.7715   -0.4928 H       1  UNL1        0.0293
     35 H           4.3659   -0.9840    1.2061 H       1  UNL1        0.0293
     36 H           1.3901    2.3979   -1.0246 H       1  UNL1        0.0296
     37 H           1.1131    0.9894   -2.0613 H       1  UNL1        0.0296
     38 H           6.8229    1.1982    2.1054 H       1  UNL1        0.0266
     39 H           6.6984    2.1260    0.6592 H       1  UNL1        0.0266
     40 H           6.4591    0.2056   -0.5690 H       1  UNL1        0.0266
     41 H           6.6986   -0.7233    0.8618 H       1  UNL1        0.0266
     42 H          -0.1653    0.2978    1.4221 H       1  UNL1        0.0326
     43 H          -0.7011    0.4874   -0.2413 H       1  UNL1        0.0326
     44 H           3.4315    0.4119   -1.9720 H       1  UNL1        0.0560
     45 H           3.2580    2.0824   -2.4997 H       1  UNL1        0.0560
     46 H           0.5232    2.6510    1.4429 H       1  UNL1        0.0814
     47 H          -0.0440    2.8230   -0.2040 H       1  UNL1        0.0814
     48 H           3.5465   -1.1804    0.1929 H       1  UNL1        0.0636
     49 H           3.5888   -3.5857   -0.2197 H       1  UNL1        0.0619
     50 H          -0.4734   -3.4255   -1.1367 H       1  UNL1        0.0829
     51 H          -2.7676    2.1010    2.8057 H       1  UNL1        0.0873
     52 H          -1.0509    2.2533    3.1855 H       1  UNL1        0.0873
     53 H           1.5362   -4.7193   -0.8968 H       1  UNL1        0.0633
     54 H          -2.2163   -2.6338    1.2203 H       1  UNL1        0.0659
     55 H          -0.3484   -2.7928    2.9209 H       1  UNL1        0.0694
     56 H          -4.0323    1.3852   -0.4717 H       1  UNL1        0.0660
     57 H          -2.2879    1.3223   -0.3913 H       1  UNL1        0.0660
     58 H          -3.2034    1.9380    0.9637 H       1  UNL1        0.0660
@<TRIPOS>UNITY_ATOM_ATTR
5 1
charge 1
@<TRIPOS>BOND
     1     1    23   ar
     2     1    26   ar
     3     2     6    1
     4     2    15    1
     5     3    24    1
     6     3    27    1
     7     4    16   ar
     8     4    20   ar
     9     5    17    1
    10     5    21    1
    11     5    28    1
    12     5    29    1
    13     6     8    1
    14     6     9    1
    15     6    10    1
    16     7     8    1
    17     7    11    1
    18     7    14    1
    19     7    16    1
    20     8    30    1
    21     8    31    1
    22     9    12    1
    23     9    32    1
    24     9    33    1
    25    10    13    1
    26    10    34    1
    27    10    35    1
    28    11    15    1
    29    11    36    1
    30    11    37    1
    31    12    13    1
    32    12    38    1
    33    12    39    1
    34    13    40    1
    35    13    41    1
    36    14    17    1
    37    14    42    1
    38    14    43    1
    39    15    44    1
    40    15    45    1
    41    16    18   ar
    42    17    46    1
    43    17    47    1
    44    18    19   ar
    45    18    48    1
    46    19    22   ar
    47    19    49    1
    48    20    22   ar
    49    20    50    1
    50    21    23    1
    51    21    51    1
    52    21    52    1
    53    22    53    1
    54    23    24   ar
    55    24    25   ar
    56    25    26   ar
    57    25    54    1
    58    26    55    1
    59    27    56    1
    60    27    57    1
    61    27    58    1
@<TRIPOS>MOLECULE
66553195
 58 61 0 0 0
SMALL
GASTEIGER

@<TRIPOS>ATOM
      1 S          -4.2524    2.4169    2.4203 S.2     1  UNL1       -0.0926
      2 O           3.9947    1.8338   -0.6210 O.3     1  UNL1       -0.3733
      3 O          -5.0705    2.6294   -1.3514 O.3     1  UNL1       -0.4941
      4 N           2.3355   -1.4362   -1.2235 N.ar    1  UNL1       -0.2593
      5 N          -1.5373    2.5691    1.2118 N.4     1  UNL1        0.2308
      6 C           3.9072    1.0510    0.5757 C.3     1  UNL1        0.0704
      7 C           1.4313    0.5057   -0.0051 C.3     1  UNL1        0.0224
      8 C           2.4527    0.9788    1.0713 C.3     1  UNL1       -0.0124
      9 C           4.8008    1.7382    1.6213 C.3     1  UNL1       -0.0237
     10 C           4.6231   -0.2974    0.4268 C.3     1  UNL1       -0.0237
     11 C           1.6850    1.3950   -1.2530 C.3     1  UNL1       -0.0181
     12 C           6.2268    1.3540    1.2306 C.3     1  UNL1       -0.0504
     13 C           6.1087    0.0588    0.4313 C.3     1  UNL1       -0.0504
     14 C          -0.0007    0.8133    0.4991 C.3     1  UNL1       -0.0013
     15 C           3.1485    1.4020   -1.6812 C.3     1  UNL1        0.0492
     16 C           1.4898   -1.0143   -0.2569 C.ar    1  UNL1        0.0478
     17 C          -0.1891    2.3072    0.7222 C.3     1  UNL1       -0.0325
     18 C           0.6938   -1.8586    0.5002 C.ar    1  UNL1       -0.0398
     19 C           0.7710   -3.2240    0.2494 C.ar    1  UNL1       -0.0586
     20 C           2.3834   -2.7700   -1.4391 C.ar    1  UNL1        0.0279
     21 C          -2.5353    2.0995    0.2612 C.3     1  UNL1        0.0021
     22 C           1.6295   -3.6966   -0.7370 C.ar    1  UNL1       -0.0436
     23 C          -3.9368    2.3747    0.7379 C.ar    1  UNL1        0.0756
     24 C          -5.0711    2.6120   -0.0070 C.ar    1  UNL1        0.1353
     25 C          -6.2143    2.8314    0.8145 C.ar    1  UNL1       -0.0124
     26 C          -5.9103    2.7535    2.1559 C.ar    1  UNL1       -0.0203
     27 C          -6.2724    2.2258   -2.0227 C.3     1  UNL1        0.0788
     28 H          -1.6536    3.5731    1.3494 H       1  UNL1        0.2017
     29 H          -1.6666    2.0715    2.0928 H       1  UNL1        0.2017
     30 H           2.1628    1.9541    1.4025 H       1  UNL1        0.0302
     31 H           2.4318    0.2502    1.8546 H       1  UNL1        0.0302
     32 H           4.5711    1.3839    2.6045 H       1  UNL1        0.0293
     33 H           4.6591    2.7986    1.6388 H       1  UNL1        0.0293
     34 H           4.3502   -0.7715   -0.4928 H       1  UNL1        0.0293
     35 H           4.3659   -0.9840    1.2061 H       1  UNL1        0.0293
     36 H           1.3901    2.3979   -1.0246 H       1  UNL1        0.0296
     37 H           1.1131    0.9894   -2.0613 H       1  UNL1        0.0296
     38 H           6.8229    1.1982    2.1054 H       1  UNL1        0.0266
     39 H           6.6984    2.1260    0.6592 H       1  UNL1        0.0266
     40 H           6.4591    0.2056   -0.5690 H       1  UNL1        0.0266
     41 H           6.6986   -0.7233    0.8618 H       1  UNL1        0.0266
     42 H          -0.1653    0.2978    1.4221 H       1  UNL1        0.0326
     43 H          -0.7011    0.4874   -0.2413 H       1  UNL1        0.0326
     44 H           3.4315    0.4119   -1.9720 H       1  UNL1        0.0560
     45 H           3.2580    2.0824   -2.4997 H       1  UNL1        0.0560
     46 H           0.5232    2.6510    1.4429 H       1  UNL1        0.0814
     47 H          -0.0440    2.8230   -0.2040 H       1  UNL1        0.0814
     48 H           0.0635   -1.4858    1.2275 H       1  UNL1        0.0636
     49 H           0.1934   -3.8841    0.7931 H       1  UNL1        0.0619
     50 H           3.0208   -3.1195   -2.1716 H       1  UNL1        0.0829
     51 H          -2.4163    1.0445    0.1273 H       1  UNL1        0.0873
     52 H          -2.3890    2.6238   -0.6599 H       1  UNL1        0.0873
     53 H           1.7029   -4.7058   -0.9398 H       1  UNL1        0.0633
     54 H          -7.1592    3.0259    0.4478 H       1  UNL1        0.0659
     55 H          -6.6004    2.8828    2.9122 H       1  UNL1        0.0694
     56 H          -6.1281    2.2888   -3.0810 H       1  UNL1        0.0660
     57 H          -7.0761    2.8702   -1.7332 H       1  UNL1        0.0660
     58 H          -6.5093    1.2175   -1.7544 H       1  UNL1        0.0660
@<TRIPOS>UNITY_ATOM_ATTR
5 1
charge 1
@<TRIPOS>BOND
     1     1    23   ar
     2     1    26   ar
     3     2     6    1
     4     2    15    1
     5     3    24    1
     6     3    27    1
     7     4    16   ar
     8     4    20   ar
     9     5    17    1
    10     5    21    1
    11     5    28    1
    12     5    29    1
    13     6     8    1
    14     6     9    1
    15     6    10    1
    16     7     8    1
    17     7    11    1
    18     7    14    1
    19     7    16    1
    20     8    30    1
    21     8    31    1
    22     9    12    1
    23     9    32    1
    24     9    33    1
    25    10    13    1
    26    10    34    1
    27    10    35    1
    28    11    15    1
    29    11    36    1
    30    11    37    1
    31    12    13    1
    32    12    38    1
    33    12    39    1
    34    13    40    1
    35    13    41    1
    36    14    17    1
    37    14    42    1
    38    14    43    1
    39    15    44    1
    40    15    45    1
    41    16    18   ar
    42    17    46    1
    43    17    47    1
    44    18    19   ar
    45    18    48    1
    46    19    22   ar
    47    19    49    1
    48    20    22   ar
    49    20    50    1
    50    21    23    1
    51    21    51    1
    52    21    52    1
    53    22    53    1
    54    23    24   ar
    55    24    25   ar
    56    25    26   ar
    57    25    54    1
    58    26    55    1
    59    27    56    1
    60    27    57    1
    61    27    58    1
@<TRIPOS>MOLECULE
66553195
 58 61 0 0 0
SMALL
GASTEIGER

@<TRIPOS>ATOM
      1 S          -4.3455    0.9964    3.0467 S.2     1  UNL1       -0.0926
      2 O           3.9947    1.8338   -0.6210 O.3     1  UNL1       -0.3733
      3 O          -3.3456   -1.2227    6.0494 O.3     1  UNL1       -0.4941
      4 N           1.1728   -1.4348   -1.5019 N.ar    1  UNL1       -0.2593
      5 N          -1.6350    0.3940    2.2612 N.4     1  UNL1        0.2308
      6 C           3.9072    1.0510    0.5757 C.3     1  UNL1        0.0704
      7 C           1.4313    0.5057   -0.0051 C.3     1  UNL1        0.0224
      8 C           2.4527    0.9788    1.0713 C.3     1  UNL1       -0.0124
      9 C           4.8008    1.7382    1.6213 C.3     1  UNL1       -0.0237
     10 C           4.6231   -0.2974    0.4268 C.3     1  UNL1       -0.0237
     11 C           1.6850    1.3950   -1.2530 C.3     1  UNL1       -0.0181
     12 C           6.2268    1.3540    1.2306 C.3     1  UNL1       -0.0504
     13 C           6.1087    0.0588    0.4313 C.3     1  UNL1       -0.0504
     14 C          -0.0007    0.8133    0.4991 C.3     1  UNL1       -0.0013
     15 C           3.1485    1.4020   -1.6812 C.3     1  UNL1        0.0492
     16 C           1.4898   -1.0143   -0.2569 C.ar    1  UNL1        0.0478
     17 C          -0.2774    0.1027    1.8165 C.3     1  UNL1       -0.0325
     18 C           1.8563   -1.8599    0.7777 C.ar    1  UNL1       -0.0398
     19 C           1.9006   -3.2250    0.5177 C.ar    1  UNL1       -0.0586
     20 C           1.2269   -2.7685   -1.7172 C.ar    1  UNL1        0.0279
     21 C          -1.9180   -0.2623    3.5298 C.3     1  UNL1        0.0021
     22 C           1.5815   -3.6961   -0.7510 C.ar    1  UNL1       -0.0436
     23 C          -3.3217    0.0104    4.0014 C.ar    1  UNL1        0.0756
     24 C          -3.9499   -0.4330    5.1445 C.ar    1  UNL1        0.1353
     25 C          -5.2895    0.0433    5.2375 C.ar    1  UNL1       -0.0124
     26 C          -5.6342    0.8323    4.1621 C.ar    1  UNL1       -0.0203
     27 C          -4.1670   -2.1386    6.7872 C.3     1  UNL1        0.0788
     28 H          -2.2953    0.0614    1.5586 H       1  UNL1        0.2017
     29 H          -1.7274    1.4019    2.3879 H       1  UNL1        0.2017
     30 H           2.1628    1.9541    1.4025 H       1  UNL1        0.0302
     31 H           2.4318    0.2502    1.8546 H       1  UNL1        0.0302
     32 H           4.5711    1.3839    2.6045 H       1  UNL1        0.0293
     33 H           4.6591    2.7986    1.6388 H       1  UNL1        0.0293
     34 H           4.3502   -0.7715   -0.4928 H       1  UNL1        0.0293
     35 H           4.3659   -0.9840    1.2061 H       1  UNL1        0.0293
     36 H           1.3901    2.3979   -1.0246 H       1  UNL1        0.0296
     37 H           1.1131    0.9894   -2.0613 H       1  UNL1        0.0296
     38 H           6.8229    1.1982    2.1054 H       1  UNL1        0.0266
     39 H           6.6984    2.1260    0.6592 H       1  UNL1        0.0266
     40 H           6.4591    0.2056   -0.5690 H       1  UNL1        0.0266
     41 H           6.6986   -0.7233    0.8618 H       1  UNL1        0.0266
     42 H          -0.7081    0.4828   -0.2325 H       1  UNL1        0.0326
     43 H          -0.0890    1.8682    0.6548 H       1  UNL1        0.0326
     44 H           3.4315    0.4119   -1.9720 H       1  UNL1        0.0560
     45 H           3.2580    2.0824   -2.4997 H       1  UNL1        0.0560
     46 H          -0.1674   -0.9529    1.6803 H       1  UNL1        0.0814
     47 H           0.4168    0.4462    2.5548 H       1  UNL1        0.0814
     48 H           2.0890   -1.4881    1.7119 H       1  UNL1        0.0636
     49 H           2.1692   -3.8860    1.2633 H       1  UNL1        0.0619
     50 H           0.9896   -3.1170   -2.6591 H       1  UNL1        0.0829
     51 H          -1.2296    0.0966    4.2663 H       1  UNL1        0.0873
     52 H          -1.8146   -1.3178    3.3878 H       1  UNL1        0.0873
     53 H           1.6078   -4.7050   -0.9662 H       1  UNL1        0.0633
     54 H          -5.9268   -0.1770    6.0188 H       1  UNL1        0.0659
     55 H          -6.5598    1.2725    4.0428 H       1  UNL1        0.0694
     56 H          -3.5570   -2.6979    7.4654 H       1  UNL1        0.0660
     57 H          -4.6525   -2.8085    6.1086 H       1  UNL1        0.0660
     58 H          -4.9042   -1.5925    7.3379 H       1  UNL1        0.0660
@<TRIPOS>UNITY_ATOM_ATTR
5 1
charge 1
@<TRIPOS>BOND
     1     1    23   ar
     2     1    26   ar
     3     2     6    1
     4     2    15    1
     5     3    24    1
     6     3    27    1
     7     4    16   ar
     8     4    20   ar
     9     5    17    1
    10     5    21    1
    11     5    28    1
    12     5    29    1
    13     6     8    1
    14     6     9    1
    15     6    10    1
    16     7     8    1
    17     7    11    1
    18     7    14    1
    19     7    16    1
    20     8    30    1
    21     8    31    1
    22     9    12    1
    23     9    32    1
    24     9    33    1
    25    10    13    1
    26    10    34    1
    27    10    35    1
    28    11    15    1
    29    11    36    1
    30    11    37    1
    31    12    13    1
    32    12    38    1
    33    12    39    1
    34    13    40    1
    35    13    41    1
    36    14    17    1
    37    14    42    1
    38    14    43    1
    39    15    44    1
    40    15    45    1
    41    16    18   ar
    42    17    46    1
    43    17    47    1
    44    18    19   ar
    45    18    48    1
    46    19    22   ar
    47    19    49    1
    48    20    22   ar
    49    20    50    1
    50    21    23    1
    51    21    51    1
    52    21    52    1
    53    22    53    1
    54    23    24   ar
    55    24    25   ar
    56    25    26   ar
    57    25    54    1
    58    26    55    1
    59    27    56    1
    60    27    57    1
    61    27    58    1
@<TRIPOS>MOLECULE
66553195
 58 61 0 0 0
SMALL
GASTEIGER

@<TRIPOS>ATOM
      1 S          -4.3455    0.9964    3.0467 S.2     1  UNL1       -0.0926
      2 O           3.9947    1.8338   -0.6210 O.3     1  UNL1       -0.3733
      3 O          -3.3456   -1.2227    6.0494 O.3     1  UNL1       -0.4941
      4 N           2.6736   -1.5136   -0.6773 N.ar    1  UNL1       -0.2593
      5 N          -1.6350    0.3940    2.2612 N.4     1  UNL1        0.2308
      6 C           3.9072    1.0510    0.5757 C.3     1  UNL1        0.0704
      7 C           1.4313    0.5057   -0.0051 C.3     1  UNL1        0.0224
      8 C           2.4527    0.9788    1.0713 C.3     1  UNL1       -0.0124
      9 C           4.8008    1.7382    1.6213 C.3     1  UNL1       -0.0237
     10 C           4.6231   -0.2974    0.4268 C.3     1  UNL1       -0.0237
     11 C           1.6850    1.3950   -1.2530 C.3     1  UNL1       -0.0181
     12 C           6.2268    1.3540    1.2306 C.3     1  UNL1       -0.0504
     13 C           6.1087    0.0588    0.4313 C.3     1  UNL1       -0.0504
     14 C          -0.0007    0.8133    0.4991 C.3     1  UNL1       -0.0013
     15 C           3.1485    1.4020   -1.6812 C.3     1  UNL1        0.0492
     16 C           1.4898   -1.0143   -0.2569 C.ar    1  UNL1        0.0478
     17 C          -0.2774    0.1027    1.8165 C.3     1  UNL1       -0.0325
     18 C           0.3554   -1.7812   -0.0456 C.ar    1  UNL1       -0.0398
     19 C           0.4416   -3.1489   -0.2805 C.ar    1  UNL1       -0.0586
     20 C           2.7193   -2.8472   -0.8953 C.ar    1  UNL1        0.0279
     21 C          -1.9180   -0.2623    3.5298 C.3     1  UNL1        0.0021
     22 C           1.6425   -3.6999   -0.7135 C.ar    1  UNL1       -0.0436
     23 C          -3.3217    0.0104    4.0014 C.ar    1  UNL1        0.0756
     24 C          -3.9499   -0.4330    5.1445 C.ar    1  UNL1        0.1353
     25 C          -5.2895    0.0433    5.2375 C.ar    1  UNL1       -0.0124
     26 C          -5.6342    0.8323    4.1621 C.ar    1  UNL1       -0.0203
     27 C          -4.1109   -1.6323    7.1915 C.3     1  UNL1        0.0788
     28 H          -2.2953    0.0614    1.5586 H       1  UNL1        0.2017
     29 H          -1.7274    1.4019    2.3879 H       1  UNL1        0.2017
     30 H           2.1628    1.9541    1.4025 H       1  UNL1        0.0302
     31 H           2.4318    0.2502    1.8546 H       1  UNL1        0.0302
     32 H           4.5711    1.3839    2.6045 H       1  UNL1        0.0293
     33 H           4.6591    2.7986    1.6388 H       1  UNL1        0.0293
     34 H           4.3502   -0.7715   -0.4928 H       1  UNL1        0.0293
     35 H           4.3659   -0.9840    1.2061 H       1  UNL1        0.0293
     36 H           1.3901    2.3979   -1.0246 H       1  UNL1        0.0296
     37 H           1.1131    0.9894   -2.0613 H       1  UNL1        0.0296
     38 H           6.8229    1.1982    2.1054 H       1  UNL1        0.0266
     39 H           6.6984    2.1260    0.6592 H       1  UNL1        0.0266
     40 H           6.4591    0.2056   -0.5690 H       1  UNL1        0.0266
     41 H           6.6986   -0.7233    0.8618 H       1  UNL1        0.0266
     42 H          -0.7081    0.4828   -0.2325 H       1  UNL1        0.0326
     43 H          -0.0890    1.8682    0.6548 H       1  UNL1        0.0326
     44 H           3.4315    0.4119   -1.9720 H       1  UNL1        0.0560
     45 H           3.2580    2.0824   -2.4997 H       1  UNL1        0.0560
     46 H          -0.1674   -0.9529    1.6803 H       1  UNL1        0.0814
     47 H           0.4168    0.4462    2.5548 H       1  UNL1        0.0814
     48 H          -0.5258   -1.3509    0.2761 H       1  UNL1        0.0636
     49 H          -0.3824   -3.7527   -0.1341 H       1  UNL1        0.0619
     50 H           3.6111   -3.2550   -1.2169 H       1  UNL1        0.0829
     51 H          -1.2296    0.0966    4.2663 H       1  UNL1        0.0873
     52 H          -1.8146   -1.3178    3.3878 H       1  UNL1        0.0873
     53 H           1.7291   -4.7124   -0.8938 H       1  UNL1        0.0633
     54 H          -5.9268   -0.1770    6.0188 H       1  UNL1        0.0659
     55 H          -6.5598    1.2725    4.0428 H       1  UNL1        0.0694
     56 H          -3.5076   -2.2521    7.8214 H       1  UNL1        0.0660
     57 H          -4.9696   -2.1822    6.8670 H       1  UNL1        0.0660
     58 H          -4.4264   -0.7683    7.7381 H       1  UNL1        0.0660
@<TRIPOS>UNITY_ATOM_ATTR
5 1
charge 1
@<TRIPOS>BOND
     1     1    23   ar
     2     1    26   ar
     3     2     6    1
     4     2    15    1
     5     3    24    1
     6     3    27    1
     7     4    16   ar
     8     4    20   ar
     9     5    17    1
    10     5    21    1
    11     5    28    1
    12     5    29    1
    13     6     8    1
    14     6     9    1
    15     6    10    1
    16     7     8    1
    17     7    11    1
    18     7    14    1
    19     7    16    1
    20     8    30    1
    21     8    31    1
    22     9    12    1
    23     9    32    1
    24     9    33    1
    25    10    13    1
    26    10    34    1
    27    10    35    1
    28    11    15    1
    29    11    36    1
    30    11    37    1
    31    12    13    1
    32    12    38    1
    33    12    39    1
    34    13    40    1
    35    13    41    1
    36    14    17    1
    37    14    42    1
    38    14    43    1
    39    15    44    1
    40    15    45    1
    41    16    18   ar
    42    17    46    1
    43    17    47    1
    44    18    19   ar
    45    18    48    1
    46    19    22   ar
    47    19    49    1
    48    20    22   ar
    49    20    50    1
    50    21    23    1
    51    21    51    1
    52    21    52    1
    53    22    53    1
    54    23    24   ar
    55    24    25   ar
    56    25    26   ar
    57    25    54    1
    58    26    55    1
    59    27    56    1
    60    27    57    1
    61    27    58    1
@<TRIPOS>MOLECULE
66553195
 58 61 0 0 0
SMALL
GASTEIGER

@<TRIPOS>ATOM
      1 S          -4.0936    3.8312    1.6869 S.2     1  UNL1       -0.0926
      2 O           3.9947    1.8338   -0.6210 O.3     1  UNL1       -0.3733
      3 O          -5.2074    0.6926   -0.2750 O.3     1  UNL1       -0.4941
      4 N           1.1728   -1.4348   -1.5019 N.ar    1  UNL1       -0.2593
      5 N          -2.3798    0.6689   -0.0216 N.4     1  UNL1        0.2308
      6 C           3.9072    1.0510    0.5757 C.3     1  UNL1        0.0704
      7 C           1.4313    0.5057   -0.0051 C.3     1  UNL1        0.0224
      8 C           2.4527    0.9788    1.0713 C.3     1  UNL1       -0.0124
      9 C           4.8008    1.7382    1.6213 C.3     1  UNL1       -0.0237
     10 C           4.6231   -0.2974    0.4268 C.3     1  UNL1       -0.0237
     11 C           1.6850    1.3950   -1.2530 C.3     1  UNL1       -0.0181
     12 C           6.2268    1.3540    1.2306 C.3     1  UNL1       -0.0504
     13 C           6.1087    0.0588    0.4313 C.3     1  UNL1       -0.0504
     14 C          -0.0007    0.8133    0.4991 C.3     1  UNL1       -0.0013
     15 C           3.1485    1.4020   -1.6812 C.3     1  UNL1        0.0492
     16 C           1.4898   -1.0143   -0.2569 C.ar    1  UNL1        0.0478
     17 C          -1.0428    0.3538   -0.5107 C.3     1  UNL1       -0.0325
     18 C           1.8563   -1.8599    0.7777 C.ar    1  UNL1       -0.0398
     19 C           1.9006   -3.2250    0.5177 C.ar    1  UNL1       -0.0586
     20 C           1.2269   -2.7685   -1.7172 C.ar    1  UNL1        0.0279
     21 C          -2.5388    2.1040    0.1669 C.3     1  UNL1        0.0021
     22 C           1.5815   -3.6961   -0.7510 C.ar    1  UNL1       -0.0436
     23 C          -3.9076    2.4526    0.6884 C.ar    1  UNL1        0.0756
     24 C          -5.1034    1.8018    0.4776 C.ar    1  UNL1        0.1353
     25 C          -6.1864    2.4435    1.1448 C.ar    1  UNL1       -0.0124
     26 C          -5.7773    3.5603    1.8399 C.ar    1  UNL1       -0.0203
     27 C          -6.2326   -0.2505    0.0678 C.3     1  UNL1        0.0788
     28 H          -2.5293    0.1964    0.8698 H       1  UNL1        0.2017
     29 H          -3.0620    0.3531   -0.7110 H       1  UNL1        0.2017
     30 H           2.1628    1.9541    1.4025 H       1  UNL1        0.0302
     31 H           2.4318    0.2502    1.8546 H       1  UNL1        0.0302
     32 H           4.5711    1.3839    2.6045 H       1  UNL1        0.0293
     33 H           4.6591    2.7986    1.6388 H       1  UNL1        0.0293
     34 H           4.3502   -0.7715   -0.4928 H       1  UNL1        0.0293
     35 H           4.3659   -0.9840    1.2061 H       1  UNL1        0.0293
     36 H           1.3901    2.3979   -1.0246 H       1  UNL1        0.0296
     37 H           1.1131    0.9894   -2.0613 H       1  UNL1        0.0296
     38 H           6.8229    1.1982    2.1054 H       1  UNL1        0.0266
     39 H           6.6984    2.1260    0.6592 H       1  UNL1        0.0266
     40 H           6.4591    0.2056   -0.5690 H       1  UNL1        0.0266
     41 H           6.6986   -0.7233    0.8618 H       1  UNL1        0.0266
     42 H          -0.1000    1.8680    0.6496 H       1  UNL1        0.0326
     43 H          -0.1599    0.2879    1.4175 H       1  UNL1        0.0326
     44 H           3.4315    0.4119   -1.9720 H       1  UNL1        0.0560
     45 H           3.2580    2.0824   -2.4997 H       1  UNL1        0.0560
     46 H          -0.8788    0.8537   -1.4425 H       1  UNL1        0.0814
     47 H          -0.9581   -0.7040   -0.6482 H       1  UNL1        0.0814
     48 H           2.0890   -1.4881    1.7119 H       1  UNL1        0.0636
     49 H           2.1692   -3.8860    1.2633 H       1  UNL1        0.0619
     50 H           0.9896   -3.1170   -2.6591 H       1  UNL1        0.0829
     51 H          -2.3909    2.5950   -0.7723 H       1  UNL1        0.0873
     52 H          -1.8169    2.4261    0.8880 H       1  UNL1        0.0873
     53 H           1.6078   -4.7050   -0.9662 H       1  UNL1        0.0633
     54 H          -7.1628    2.1108    1.1113 H       1  UNL1        0.0659
     55 H          -6.4109    4.1627    2.3883 H       1  UNL1        0.0694
     56 H          -6.1981   -1.0772   -0.6106 H       1  UNL1        0.0660
     57 H          -7.1896    0.2240    0.0035 H       1  UNL1        0.0660
     58 H          -6.0750   -0.6015    1.0662 H       1  UNL1        0.0660
@<TRIPOS>UNITY_ATOM_ATTR
5 1
charge 1
@<TRIPOS>BOND
     1     1    23   ar
     2     1    26   ar
     3     2     6    1
     4     2    15    1
     5     3    24    1
     6     3    27    1
     7     4    16   ar
     8     4    20   ar
     9     5    17    1
    10     5    21    1
    11     5    28    1
    12     5    29    1
    13     6     8    1
    14     6     9    1
    15     6    10    1
    16     7     8    1
    17     7    11    1
    18     7    14    1
    19     7    16    1
    20     8    30    1
    21     8    31    1
    22     9    12    1
    23     9    32    1
    24     9    33    1
    25    10    13    1
    26    10    34    1
    27    10    35    1
    28    11    15    1
    29    11    36    1
    30    11    37    1
    31    12    13    1
    32    12    38    1
    33    12    39    1
    34    13    40    1
    35    13    41    1
    36    14    17    1
    37    14    42    1
    38    14    43    1
    39    15    44    1
    40    15    45    1
    41    16    18   ar
    42    17    46    1
    43    17    47    1
    44    18    19   ar
    45    18    48    1
    46    19    22   ar
    47    19    49    1
    48    20    22   ar
    49    20    50    1
    50    21    23    1
    51    21    51    1
    52    21    52    1
    53    22    53    1
    54    23    24   ar
    55    24    25   ar
    56    25    26   ar
    57    25    54    1
    58    26    55    1
    59    27    56    1
    60    27    57    1
    61    27    58    1
@<TRIPOS>MOLECULE
66553195
 58 61 0 0 0
SMALL
GASTEIGER

@<TRIPOS>ATOM
      1 S          -4.6005    3.9612    0.2691 S.2     1  UNL1       -0.0926
      2 O           3.9947    1.8338   -0.6210 O.3     1  UNL1       -0.3733
      3 O          -4.4110    0.4872    1.9528 O.3     1  UNL1       -0.4941
      4 N           2.3355   -1.4362   -1.2235 N.ar    1  UNL1       -0.2593
      5 N          -2.3798    0.6689   -0.0216 N.4     1  UNL1        0.2308
      6 C           3.9072    1.0510    0.5757 C.3     1  UNL1        0.0704
      7 C           1.4313    0.5057   -0.0051 C.3     1  UNL1        0.0224
      8 C           2.4527    0.9788    1.0713 C.3     1  UNL1       -0.0124
      9 C           4.8008    1.7382    1.6213 C.3     1  UNL1       -0.0237
     10 C           4.6231   -0.2974    0.4268 C.3     1  UNL1       -0.0237
     11 C           1.6850    1.3950   -1.2530 C.3     1  UNL1       -0.0181
     12 C           6.2268    1.3540    1.2306 C.3     1  UNL1       -0.0504
     13 C           6.1087    0.0588    0.4313 C.3     1  UNL1       -0.0504
     14 C          -0.0007    0.8133    0.4991 C.3     1  UNL1       -0.0013
     15 C           3.1485    1.4020   -1.6812 C.3     1  UNL1        0.0492
     16 C           1.4898   -1.0143   -0.2569 C.ar    1  UNL1        0.0478
     17 C          -1.0428    0.3538   -0.5107 C.3     1  UNL1       -0.0325
     18 C           0.6938   -1.8586    0.5002 C.ar    1  UNL1       -0.0398
     19 C           0.7710   -3.2240    0.2494 C.ar    1  UNL1       -0.0586
     20 C           2.3834   -2.7700   -1.4391 C.ar    1  UNL1        0.0279
     21 C          -2.5388    2.1040    0.1669 C.3     1  UNL1        0.0021
     22 C           1.6295   -3.6966   -0.7370 C.ar    1  UNL1       -0.0436
     23 C          -3.9076    2.4526    0.6884 C.ar    1  UNL1        0.0756
     24 C          -4.7395    1.7080    1.4955 C.ar    1  UNL1        0.1353
     25 C          -5.9619    2.3852    1.7731 C.ar    1  UNL1       -0.0124
     26 C          -6.0179    3.6214    1.1677 C.ar    1  UNL1       -0.0203
     27 C          -4.9451    0.0863    3.2225 C.3     1  UNL1        0.0788
     28 H          -2.5293    0.1964    0.8698 H       1  UNL1        0.2017
     29 H          -3.0620    0.3531   -0.7110 H       1  UNL1        0.2017
     30 H           2.1628    1.9541    1.4025 H       1  UNL1        0.0302
     31 H           2.4318    0.2502    1.8546 H       1  UNL1        0.0302
     32 H           4.5711    1.3839    2.6045 H       1  UNL1        0.0293
     33 H           4.6591    2.7986    1.6388 H       1  UNL1        0.0293
     34 H           4.3502   -0.7715   -0.4928 H       1  UNL1        0.0293
     35 H           4.3659   -0.9840    1.2061 H       1  UNL1        0.0293
     36 H           1.3901    2.3979   -1.0246 H       1  UNL1        0.0296
     37 H           1.1131    0.9894   -2.0613 H       1  UNL1        0.0296
     38 H           6.8229    1.1982    2.1054 H       1  UNL1        0.0266
     39 H           6.6984    2.1260    0.6592 H       1  UNL1        0.0266
     40 H           6.4591    0.2056   -0.5690 H       1  UNL1        0.0266
     41 H           6.6986   -0.7233    0.8618 H       1  UNL1        0.0266
     42 H          -0.1000    1.8680    0.6496 H       1  UNL1        0.0326
     43 H          -0.1599    0.2879    1.4175 H       1  UNL1        0.0326
     44 H           3.4315    0.4119   -1.9720 H       1  UNL1        0.0560
     45 H           3.2580    2.0824   -2.4997 H       1  UNL1        0.0560
     46 H          -0.8788    0.8537   -1.4425 H       1  UNL1        0.0814
     47 H          -0.9581   -0.7040   -0.6482 H       1  UNL1        0.0814
     48 H           0.0635   -1.4858    1.2275 H       1  UNL1        0.0636
     49 H           0.1934   -3.8841    0.7931 H       1  UNL1        0.0619
     50 H           3.0208   -3.1195   -2.1716 H       1  UNL1        0.0829
     51 H          -2.3909    2.5950   -0.7723 H       1  UNL1        0.0873
     52 H          -1.8169    2.4261    0.8880 H       1  UNL1        0.0873
     53 H           1.7029   -4.7058   -0.9398 H       1  UNL1        0.0633
     54 H          -6.7168    1.9954    2.3590 H       1  UNL1        0.0659
     55 H          -6.8194    4.2666    1.2465 H       1  UNL1        0.0694
     56 H          -4.6029   -0.8997    3.4581 H       1  UNL1        0.0660
     57 H          -6.0141    0.0917    3.1775 H       1  UNL1        0.0660
     58 H          -4.6165    0.7680    3.9790 H       1  UNL1        0.0660
@<TRIPOS>UNITY_ATOM_ATTR
5 1
charge 1
@<TRIPOS>BOND
     1     1    23   ar
     2     1    26   ar
     3     2     6    1
     4     2    15    1
     5     3    24    1
     6     3    27    1
     7     4    16   ar
     8     4    20   ar
     9     5    17    1
    10     5    21    1
    11     5    28    1
    12     5    29    1
    13     6     8    1
    14     6     9    1
    15     6    10    1
    16     7     8    1
    17     7    11    1
    18     7    14    1
    19     7    16    1
    20     8    30    1
    21     8    31    1
    22     9    12    1
    23     9    32    1
    24     9    33    1
    25    10    13    1
    26    10    34    1
    27    10    35    1
    28    11    15    1
    29    11    36    1
    30    11    37    1
    31    12    13    1
    32    12    38    1
    33    12    39    1
    34    13    40    1
    35    13    41    1
    36    14    17    1
    37    14    42    1
    38    14    43    1
    39    15    44    1
    40    15    45    1
    41    16    18   ar
    42    17    46    1
    43    17    47    1
    44    18    19   ar
    45    18    48    1
    46    19    22   ar
    47    19    49    1
    48    20    22   ar
    49    20    50    1
    50    21    23    1
    51    21    51    1
    52    21    52    1
    53    22    53    1
    54    23    24   ar
    55    24    25   ar
    56    25    26   ar
    57    25    54    1
    58    26    55    1
    59    27    56    1
    60    27    57    1
    61    27    58    1
