@<TRIPOS>MOLECULE
16757018
 80 80 0 0 0
SMALL
GASTEIGER

@<TRIPOS>ATOM
      1 F           1.8009   -1.3128   -0.8452 F       1  UNL1       -0.1606
      2 F           3.6987   -0.8848   -1.8126 F       1  UNL1       -0.1606
      3 F           3.6408   -2.1115    0.0043 F       1  UNL1       -0.1606
      4 O           7.4050    5.4814   -1.4242 O.2     4  PHE4       -0.2738
      5 O           5.8034    0.8796   -1.3815 O.2     3  GLY3       -0.2739
      6 O           3.9939    2.5504   -2.7669 O.2     2  ALA2       -0.2738
      7 O           0.4360    2.5722   -5.8381 O.2     1  TYR1       -0.2741
      8 O           8.1380    4.6470   -5.0872 O.3     5  GLY5       -0.3935
      9 OH         -1.0272    8.3681   -8.4918 O.3     1  TYR1       -0.5068
     10 O           1.5225   -3.3165   -2.3820 O.3     1  UNL1       -0.4744
     11 O           3.7327   -3.7888   -2.4996 O.2     1  UNL1       -0.2408
     12 N           5.8942    2.7864   -0.1095 N.am    4  PHE4       -0.2914
     13 N           6.4400    3.9549   -2.8098 N.am    5  GLY5       -0.3116
     14 N           2.7468    1.5557   -1.1227 N.am    3  GLY3       -0.3052
     15 N           1.7237    3.2848   -4.0795 N.am    2  ALA2       -0.3030
     16 N           2.9387    5.1714   -5.4858 N.3     1  TYR1       -0.3197
     17 CA          7.2406    3.1996   -0.5973 C.3     4  PHE4        0.1058
     18 CB          8.2423    2.2120   -1.2492 C.3     4  PHE4       -0.0005
     19 C           7.0370    4.3276   -1.6378 C.2     4  PHE4        0.2340
     20 CG          8.6610    0.9299   -0.5751 C.ar    4  PHE4       -0.0451
     21 C           5.2730    1.6404   -0.5983 C.2     3  GLY3        0.2331
     22 C           5.1806    3.8342    0.6250 C.3     0  UNK0        0.0040
     23 CA          3.8192    1.3599   -0.1454 C.3     3  GLY3        0.0884
     24 CA          1.7247    1.9992   -3.3764 C.3     2  ALA2        0.0966
     25 CA          1.6816    4.6829   -6.1190 C.3     1  TYR1        0.0863
     26 CB          1.8060    4.3870   -7.6470 C.3     1  TYR1       -0.0039
     27 CD1         9.2513   -0.0550   -1.3931 C.ar    4  PHE4       -0.0585
     28 CD2         8.4739    0.6569    0.7786 C.ar    4  PHE4       -0.0585
     29 C           2.9276    2.0571   -2.3925 C.2     2  ALA2        0.2335
     30 C           1.2139    3.3954   -5.3643 C.2     1  TYR1        0.2308
     31 CA          6.0650    4.9083   -3.8480 C.3     5  GLY5        0.0348
     32 CG          1.9104    5.5827   -8.6366 C.ar    1  TYR1       -0.0452
     33 CB          0.3736    1.6672   -2.7539 C.3     2  ALA2       -0.0381
     34 CE1         9.5586   -1.3131   -0.8971 C.ar    4  PHE4       -0.0615
     35 CE2         8.7793   -0.6123    1.2808 C.ar    4  PHE4       -0.0615
     36 CZ          9.3018   -1.6004    0.4428 C.ar    4  PHE4       -0.0617
     37 C           7.2586    5.6042   -4.5009 C.3     5  GLY5        0.0597
     38 CD1         2.2401    6.8409   -8.1518 C.ar    1  TYR1       -0.0551
     39 CD2         0.9556    5.5702   -9.6524 C.ar    1  TYR1       -0.0551
     40 CE1         1.2481    7.8157   -8.1522 C.ar    1  TYR1       -0.0199
     41 CE2        -0.1305    6.4188   -9.5396 C.ar    1  TYR1       -0.0199
     42 CZ          0.0104    7.5202   -8.7127 C.ar    1  TYR1        0.1169
     43 C           3.0163   -1.8630   -1.1759 C.3     1  UNL1        0.4910
     44 C           2.8330   -3.0835   -2.0635 C.2     1  UNL1        0.4107
     45 HA          7.7428    3.6431    0.2728 H       4  PHE4        0.0600
     46 HB1         7.8703    1.9368   -2.2442 H       4  PHE4        0.0336
     47 HB2         9.1694    2.7760   -1.4417 H       4  PHE4        0.0336
     48 H           5.7565    4.0835    1.5182 H       0  UNK0        0.0429
     49 H           5.0791    4.7188   -0.0091 H       0  UNK0        0.0429
     50 H           4.1746    3.5689    0.9356 H       0  UNK0        0.0429
     51 HA1         3.7926    0.3000    0.1324 H       3  GLY3        0.0558
     52 HA2         3.5251    1.8356    0.7854 H       3  GLY3        0.0558
     53 HA          1.9639    1.2258   -4.1177 H       2  ALA2        0.0592
     54 HA          0.9014    5.4385   -5.9528 H       1  TYR1        0.0557
     55 HB1         2.6040    3.6666   -7.8482 H       1  TYR1        0.0333
     56 HB2         0.8693    3.8697   -7.9135 H       1  TYR1        0.0333
     57 H           5.8458    3.1169   -2.7759 H       5  GLY5        0.1488
     58 H           1.8404    1.2093   -0.8498 H       3  GLY3        0.1492
     59 HD1         9.4332    0.1520   -2.4479 H       4  PHE4        0.0620
     60 HD2         8.0550    1.4008    1.4498 H       4  PHE4        0.0620
     61 H           2.5855    3.8236   -3.9852 H       2  ALA2        0.1495
     62 HA1         5.5249    4.3310   -4.6043 H       5  GLY5        0.0484
     63 HA2         5.3859    5.6426   -3.4038 H       5  GLY5        0.0484
     64 HB1        -0.4587    1.8915   -3.4277 H       2  ALA2        0.0252
     65 HB2         0.3257    0.5966   -2.5183 H       2  ALA2        0.0252
     66 HB3         0.2005    2.2196   -1.8250 H       2  ALA2        0.0252
     67 HE1         9.9694   -2.0734   -1.5521 H       4  PHE4        0.0618
     68 HE2         8.5921   -0.8412    2.3251 H       4  PHE4        0.0618
     69 H1          3.4066    5.7993   -6.1331 H       1  TYR1        0.1189
     70 H2          2.6818    5.7569   -4.6894 H       1  TYR1        0.1189
     71 HZ          9.5012   -2.5961    0.8283 H       4  PHE4        0.0618
     72 H1          6.9070    6.2686   -5.2958 H       5  GLY5        0.0573
     73 H2          7.8325    6.2028   -3.7889 H       5  GLY5        0.0573
     74 HD1         3.1874    7.0319   -7.6629 H       1  TYR1        0.0621
     75 HD2         1.2016    5.1623  -10.6336 H       1  TYR1        0.0621
     76 HE1         1.4191    8.7696   -7.6665 H       1  TYR1        0.0654
     77 HE2        -1.0053    6.2711  -10.1616 H       1  TYR1        0.0654
     78 H           8.3471    4.0158   -4.3746 H       5  GLY5        0.2095
     79 HH         -1.8437    7.8763   -8.6862 H       1  TYR1        0.2921
     80 H           0.9166   -2.6621   -1.9702 H       1  UNL1        0.2953
@<TRIPOS>BOND
     1     1    43    1
     2     2    43    1
     3     3    43    1
     4     4    19    2
     5     5    21    2
     6     6    29    2
     7     7    30    2
     8     8    37    1
     9     8    78    1
    10     9    42    1
    11     9    79    1
    12    10    44    1
    13    10    80    1
    14    11    44    2
    15    17    12    1
    16    12    21   am
    17    12    22    1
    18    13    19   am
    19    13    31    1
    20    13    57    1
    21    14    23    1
    22    14    29   am
    23    14    58    1
    24    15    30   am
    25    15    61    1
    26    25    16    1
    27    16    69    1
    28    16    70    1
    29    17    18    1
    30    17    19    1
    31    17    45    1
    32    18    20    1
    33    18    46    1
    34    18    47    1
    35    20    27   ar
    36    20    28   ar
    37    21    23    1
    38    22    48    1
    39    22    49    1
    40    22    50    1
    41    23    51    1
    42    23    52    1
    43    24    33    1
    44    24    53    1
    45    25    26    1
    46    25    30    1
    47    25    54    1
    48    26    32    1
    49    26    55    1
    50    26    56    1
    51    27    34   ar
    52    27    59    1
    53    28    35   ar
    54    28    60    1
    55    31    37    1
    56    31    62    1
    57    31    63    1
    58    32    38   ar
    59    32    39   ar
    60    33    64    1
    61    33    65    1
    62    33    66    1
    63    34    36   ar
    64    34    67    1
    65    35    36   ar
    66    35    68    1
    67    36    71    1
    68    37    72    1
    69    37    73    1
    70    38    40   ar
    71    38    74    1
    72    39    41   ar
    73    39    75    1
    74    40    42   ar
    75    40    76    1
    76    41    42   ar
    77    41    77    1
    78    43    44    1
    79    24    29    1
    80    24    15    1
@<TRIPOS>MOLECULE
169490810
 72 73 0 0 0
SMALL
GASTEIGER

@<TRIPOS>ATOM
      1 O           1.4989    3.1688    2.3801 O.2     4  PHE4       -0.2738
      2 O           2.1215   -0.7971    0.6749 O.2     3  GLY3       -0.2739
      3 O           4.3984    0.7408   -3.3717 O.2     2  ALA2       -0.2738
      4 O           8.1575   -2.8924   -2.8098 O.2     1  TYR1       -0.2741
      5 O          -1.0890    5.7585    2.9508 O.3     5  GLY5       -0.3935
      6 OH         10.6595   -6.3581    4.5109 O.3     1  TYR1       -0.5068
      7 N           0.9254    1.1677    0.4040 N.am    4  PHE4       -0.2914
      8 N          -0.5572    2.8911    3.3544 N.am    5  GLY5       -0.3116
      9 N           3.9450   -0.3165   -1.4173 N.am    3  GLY3       -0.3052
     10 N           6.7107   -1.4362   -1.7443 N.am    2  ALA2       -0.3030
     11 N           7.1848   -2.6059    0.6366 N.3     1  TYR1       -0.3197
     12 CA          0.2052    1.1853    1.7201 C.3     4  PHE4        0.1058
     13 CB          0.2693   -0.0195    2.6964 C.3     4  PHE4       -0.0005
     14 C           0.4643    2.5040    2.5072 C.2     4  PHE4        0.2340
     15 CG          1.3918   -0.1150    3.7157 C.ar    4  PHE4       -0.0451
     16 C           1.9196    0.2464    0.0515 C.2     3  GLY3        0.2331
     17 CA          2.7848    0.5596   -1.1957 C.3     3  GLY3        0.0884
     18 C           0.4607    2.1953   -0.5359 C.3     0  UNK0        0.0040
     19 CA          5.8110   -1.2047   -2.8813 C.3     2  ALA2        0.0966
     20 CA          8.2651   -2.7945   -0.3719 C.3     1  TYR1        0.0863
     21 CB          8.8334   -4.2381   -0.4334 C.3     1  TYR1       -0.0039
     22 C           4.6953   -0.1501   -2.5713 C.2     2  ALA2        0.2335
     23 C           7.7142   -2.4019   -1.7754 C.2     1  TYR1        0.2308
     24 CD1         1.1164   -0.6674    4.9800 C.ar    4  PHE4       -0.0585
     25 CD2         2.7009    0.3088    3.4603 C.ar    4  PHE4       -0.0585
     26 CG          9.3455   -4.8059    0.8766 C.ar    1  TYR1       -0.0452
     27 CA         -0.3837    3.9235    4.3738 C.3     5  GLY5        0.0348
     28 CB          6.5303   -0.7854   -4.1722 C.3     2  ALA2       -0.0381
     29 CE1         2.0999   -0.7283    5.9713 C.ar    4  PHE4       -0.0615
     30 CE2         3.6878    0.2399    4.4472 C.ar    4  PHE4       -0.0615
     31 CZ          3.3835   -0.2611    5.7084 C.ar    4  PHE4       -0.0617
     32 C          -0.0610    5.3202    3.8355 C.3     5  GLY5        0.0597
     33 CD1         8.4884   -5.5436    1.7088 C.ar    1  TYR1       -0.0551
     34 CD2        10.6789   -4.6261    1.2735 C.ar    1  TYR1       -0.0551
     35 CE1         8.9450   -6.0636    2.9216 C.ar    1  TYR1       -0.0199
     36 CE2        11.1385   -5.1519    2.4871 C.ar    1  TYR1       -0.0199
     37 CZ         10.2620   -5.8546    3.3077 C.ar    1  TYR1        0.1169
     38 HA         -0.8541    1.2339    1.4118 H       4  PHE4        0.0600
     39 HB1        -0.6480    0.0660    3.3023 H       4  PHE4        0.0336
     40 HB2         0.1624   -0.9696    2.1628 H       4  PHE4        0.0336
     41 HA1         2.1507    0.4807   -2.0846 H       3  GLY3        0.0558
     42 HA2         3.1698    1.5808   -1.1091 H       3  GLY3        0.0558
     43 H          -0.6098    2.0379   -0.7140 H       0  UNK0        0.0429
     44 H           0.6046    3.1861   -0.1032 H       0  UNK0        0.0429
     45 H           0.9613    2.1611   -1.5035 H       0  UNK0        0.0429
     46 HA          5.3068   -2.1612   -3.0651 H       2  ALA2        0.0592
     47 HA          9.0819   -2.1048   -0.1252 H       1  TYR1        0.0557
     48 HB1         8.0793   -4.9229   -0.8449 H       1  TYR1        0.0333
     49 HB2         9.6613   -4.2670   -1.1566 H       1  TYR1        0.0333
     50 H          -1.3254    2.2495    3.5076 H       5  GLY5        0.1488
     51 H           4.0177   -1.1539   -0.8492 H       3  GLY3        0.1492
     52 H           6.2941   -1.3555   -0.8247 H       2  ALA2        0.1495
     53 HD1         0.1234   -1.0470    5.2112 H       4  PHE4        0.0620
     54 HD2         2.9816    0.7130    2.4931 H       4  PHE4        0.0620
     55 HA1        -1.3341    3.9645    4.9214 H       5  GLY5        0.0484
     56 HA2         0.3980    3.5933    5.0651 H       5  GLY5        0.0484
     57 HB1         7.3815   -1.4187   -4.4289 H       2  ALA2        0.0252
     58 HB2         5.8343   -0.8377   -5.0187 H       2  ALA2        0.0252
     59 HB3         6.8958    0.2455   -4.1116 H       2  ALA2        0.0252
     60 HE1         1.8623   -1.1380    6.9496 H       4  PHE4        0.0618
     61 HE2         4.6932    0.5882    4.2266 H       4  PHE4        0.0618
     62 H1          7.4424   -3.1272    1.4780 H       1  TYR1        0.1189
     63 H2          7.1992   -1.6320    0.9415 H       1  TYR1        0.1189
     64 HZ          4.1466   -0.2910    6.4809 H       4  PHE4        0.0618
     65 H1         -0.0071    6.0331    4.6652 H       5  GLY5        0.0573
     66 H2          0.8941    5.3565    3.3069 H       5  GLY5        0.0573
     67 HD1         7.4550   -5.7182    1.4159 H       1  TYR1        0.0621
     68 HD2        11.3760   -4.0894    0.6339 H       1  TYR1        0.0621
     69 HE1         8.2743   -6.6288    3.5626 H       1  TYR1        0.0654
     70 HE2        12.1774   -5.0103    2.7692 H       1  TYR1        0.0654
     71 H          -1.0291    5.1724    2.1761 H       5  GLY5        0.2095
     72 HH         11.5633   -6.0528    4.6917 H       1  TYR1        0.2921
@<TRIPOS>BOND
     1     1    14    2
     2     2    16    2
     3     3    22    2
     4     4    23    2
     5     5    32    1
     6     5    71    1
     7     6    37    1
     8     6    72    1
     9    12     7    1
    10     7    16   am
    11     7    18    1
    12     8    14   am
    13     8    27    1
    14     8    50    1
    15     9    17    1
    16     9    22   am
    17     9    51    1
    18    10    23   am
    19    10    52    1
    20    20    11    1
    21    11    62    1
    22    11    63    1
    23    12    13    1
    24    12    14    1
    25    12    38    1
    26    13    15    1
    27    13    39    1
    28    13    40    1
    29    15    24   ar
    30    15    25   ar
    31    16    17    1
    32    17    41    1
    33    17    42    1
    34    18    43    1
    35    18    44    1
    36    18    45    1
    37    19    28    1
    38    19    46    1
    39    20    21    1
    40    20    23    1
    41    20    47    1
    42    21    26    1
    43    21    48    1
    44    21    49    1
    45    24    29   ar
    46    24    53    1
    47    25    30   ar
    48    25    54    1
    49    26    33   ar
    50    26    34   ar
    51    27    32    1
    52    27    55    1
    53    27    56    1
    54    28    57    1
    55    28    58    1
    56    28    59    1
    57    29    31   ar
    58    29    60    1
    59    30    31   ar
    60    30    61    1
    61    31    64    1
    62    32    65    1
    63    32    66    1
    64    33    35   ar
    65    33    67    1
    66    34    36   ar
    67    34    68    1
    68    35    37   ar
    69    35    69    1
    70    36    37   ar
    71    36    70    1
    72    19    22    1
    73    19    10    1
@<TRIPOS>MOLECULE
5462471
 72 73 0 0 0
SMALL
GASTEIGER

@<TRIPOS>ATOM
      1 O          10.6339   -5.1010    1.4448 O.2     4  PHE4       -0.2738
      2 O           7.1530   -3.7136    1.5523 O.2     3  GLY3       -0.2739
      3 O           3.9346   -1.3247    4.3982 O.2     2  ALA2       -0.2738
      4 O           1.3100   -0.8350    2.8594 O.2     1  TYR1       -0.2741
      5 O           8.7790   -1.2335    1.2461 O.3     5  GLY5       -0.3935
      6 OH         -0.0024    5.4309    1.6649 O.3     1  TYR1       -0.5068
      7 N           7.5763   -4.8293    3.5324 N.am    4  PHE4       -0.2914
      8 N           9.9031   -3.3783    2.7599 N.am    5  GLY5       -0.3116
      9 N           5.2366   -1.9792    2.6523 N.am    3  GLY3       -0.3052
     10 N           2.7946    0.9108    2.9531 N.am    2  ALA2       -0.3030
     11 N          -0.7847    0.5793    4.0015 N.3     1  TYR1       -0.3197
     12 CA          8.7926   -5.5420    3.0211 C.3     4  PHE4        0.1058
     13 CB          8.6211   -7.0163    2.5668 C.3     4  PHE4       -0.0005
     14 C           9.8304   -4.6698    2.2647 C.2     4  PHE4        0.2340
     15 CG          8.2078   -7.4970    1.1903 C.ar    4  PHE4       -0.0451
     16 C           6.8505   -3.9450    2.7241 C.2     3  GLY3        0.2331
     17 CA          5.7166   -3.1364    3.4016 C.3     3  GLY3        0.0884
     18 C           7.2502   -5.0795    4.9368 C.3     0  UNK0        0.0040
     19 CA          4.0172    0.2214    2.5133 C.3     2  ALA2        0.0966
     20 CA          0.4661    1.3186    3.6885 C.3     1  TYR1        0.0863
     21 CB          0.9414    2.1334    4.9334 C.3     1  TYR1       -0.0039
     22 C           4.3292   -1.1174    3.2479 C.2     2  ALA2        0.2335
     23 C           1.5552    0.3345    3.1410 C.2     1  TYR1        0.2308
     24 CD1         8.1722   -6.6873    0.0566 C.ar    4  PHE4       -0.0585
     25 CD2         7.9884   -8.8803    1.0224 C.ar    4  PHE4       -0.0585
     26 CA         10.7315   -2.3564    2.1533 C.3     5  GLY5        0.0348
     27 CG          0.2380    3.5035    5.1730 C.ar    1  TYR1       -0.0452
     28 CB          4.2107    0.2563    1.0055 C.3     2  ALA2       -0.0381
     29 CE1         7.9613   -7.2438   -1.2129 C.ar    4  PHE4       -0.0615
     30 CE2         7.7604   -9.4327   -0.2421 C.ar    4  PHE4       -0.0615
     31 CZ          7.7566   -8.6135   -1.3580 C.ar    4  PHE4       -0.0617
     32 C          10.0782   -1.7348    0.9335 C.3     5  GLY5        0.0597
     33 CD1        -1.0389    3.6479    4.6418 C.ar    1  TYR1       -0.0551
     34 CD2         1.0848    4.5976    5.0130 C.ar    1  TYR1       -0.0551
     35 CE1        -1.1388    4.3748    3.4568 C.ar    1  TYR1       -0.0199
     36 CE2         1.1162    5.1761    3.7565 C.ar    1  TYR1       -0.0199
     37 CZ          0.0012    4.9981    2.9528 C.ar    1  TYR1        0.1169
     38 HA          9.3613   -5.6840    3.9594 H       4  PHE4        0.0600
     39 HB1         9.6098   -7.4807    2.7178 H       4  PHE4        0.0336
     40 HB2         7.9525   -7.5074    3.2870 H       4  PHE4        0.0336
     41 HA1         4.8702   -3.7946    3.6073 H       3  GLY3        0.0558
     42 HA2         6.1090   -2.7282    4.3443 H       3  GLY3        0.0558
     43 H           7.2447   -6.1572    5.1224 H       0  UNK0        0.0429
     44 H           8.0257   -4.6117    5.5521 H       0  UNK0        0.0429
     45 H           6.2799   -4.6813    5.2333 H       0  UNK0        0.0429
     46 HA          4.7954    0.8891    2.9098 H       2  ALA2        0.0592
     47 HA          0.2507    1.9742    2.8366 H       1  TYR1        0.0557
     48 HB1         0.8810    1.5342    5.8483 H       1  TYR1        0.0333
     49 HB2         2.0113    2.3539    4.8172 H       1  TYR1        0.0333
     50 H           9.1567   -3.0676    3.3670 H       5  GLY5        0.1488
     51 H           5.4551   -1.9292    1.6638 H       3  GLY3        0.1492
     52 H           2.8126    1.9194    2.8922 H       2  ALA2        0.1495
     53 HD1         8.3671   -5.6223    0.1186 H       4  PHE4        0.0620
     54 HD2         8.0371   -9.5498    1.8804 H       4  PHE4        0.0620
     55 HA1        10.8762   -1.5934    2.9279 H       5  GLY5        0.0484
     56 HA2        11.7053   -2.7836    1.8957 H       5  GLY5        0.0484
     57 HB1         3.7922    1.1705    0.5727 H       2  ALA2        0.0252
     58 HB2         5.2839    0.2604    0.7711 H       2  ALA2        0.0252
     59 HB3         3.7638   -0.5967    0.4928 H       2  ALA2        0.0252
     60 HE1         7.9817   -6.6022   -2.0905 H       4  PHE4        0.0618
     61 HE2         7.6212  -10.5056   -0.3492 H       4  PHE4        0.0618
     62 H1         -0.7685    0.2940    4.9792 H       1  TYR1        0.1189
     63 H2         -0.7643   -0.2958    3.4686 H       1  TYR1        0.1189
     64 HZ          7.6137   -9.0387   -2.3494 H       4  PHE4        0.0618
     65 H1         10.6716   -0.8983    0.5532 H       5  GLY5        0.0573
     66 H2          9.9778   -2.4600    0.1003 H       5  GLY5        0.0573
     67 HD1        -1.8464    2.9753    4.9218 H       1  TYR1        0.0621
     68 HD2         1.2079    5.2933    5.8518 H       1  TYR1        0.0621
     69 HE1        -2.0533    4.3382    2.8759 H       1  TYR1        0.0654
     70 HE2         1.9284    5.8362    3.4787 H       1  TYR1        0.0654
     71 H           8.1992   -2.0218    1.2572 H       5  GLY5        0.2095
     72 HH          0.9222    5.4287    1.3626 H       1  TYR1        0.2921
@<TRIPOS>BOND
     1     1    14    2
     2     2    16    2
     3     3    22    2
     4     4    23    2
     5     5    32    1
     6     5    71    1
     7     6    37    1
     8     6    72    1
     9    12     7    1
    10     7    16   am
    11     7    18    1
    12     8    14   am
    13     8    26    1
    14     8    50    1
    15     9    17    1
    16     9    22   am
    17     9    51    1
    18    10    23   am
    19    10    52    1
    20    20    11    1
    21    11    62    1
    22    11    63    1
    23    12    13    1
    24    12    14    1
    25    12    38    1
    26    13    15    1
    27    13    39    1
    28    13    40    1
    29    15    24   ar
    30    15    25   ar
    31    16    17    1
    32    17    41    1
    33    17    42    1
    34    18    43    1
    35    18    44    1
    36    18    45    1
    37    19    28    1
    38    19    46    1
    39    20    21    1
    40    20    23    1
    41    20    47    1
    42    21    27    1
    43    21    48    1
    44    21    49    1
    45    24    29   ar
    46    24    53    1
    47    25    30   ar
    48    25    54    1
    49    26    32    1
    50    26    55    1
    51    26    56    1
    52    27    33   ar
    53    27    34   ar
    54    28    57    1
    55    28    58    1
    56    28    59    1
    57    29    31   ar
    58    29    60    1
    59    30    31   ar
    60    30    61    1
    61    31    64    1
    62    32    65    1
    63    32    66    1
    64    33    35   ar
    65    33    67    1
    66    34    36   ar
    67    34    68    1
    68    35    37   ar
    69    35    69    1
    70    36    37   ar
    71    36    70    1
    72    19    22    1
    73    19    10    1
@<TRIPOS>MOLECULE
71332445
 80 80 0 0 0
SMALL
GASTEIGER

@<TRIPOS>ATOM
      1 O           2.2567    0.9294    6.1605 O.2     4  PHE4       -0.2738
      2 O          -0.5579    2.2735    3.2806 O.2     3  GLY3       -0.2739
      3 O           1.4234    2.2215   -1.0258 O.2     2  ALA2       -0.2738
      4 O           3.9572   -0.1445    0.9091 O.2     1  TYR1       -0.2741
      5 O           3.8272    1.4542    9.4476 O.3     5  GLY5       -0.3935
      6 OH          5.0391    2.9057    6.3854 O.3     1  TYR1       -0.5068
      7 O           0.4343   -1.7567   -0.4348 O.3     1  UNL1       -0.4808
      8 O          -0.5187   -3.2703    0.9433 O.2     1  UNL1       -0.2513
      9 N           0.9362    3.0963    4.8492 N.am    4  PHE4       -0.2914
     10 N           1.2045    1.3825    8.1507 N.am    5  GLY5       -0.3116
     11 N           1.1328    2.7342    1.1084 N.am    3  GLY3       -0.3052
     12 N           4.2524    2.0950    1.3107 N.am    2  ALA2       -0.3030
     13 N           5.4004   -0.9461    3.2098 N.3     1  TYR1       -0.3197
     14 CA          0.3730    2.4635    6.0859 C.3     4  PHE4        0.1058
     15 CB         -0.9792    1.7073    6.1017 C.3     4  PHE4       -0.0005
     16 C           1.3814    1.5331    6.7885 C.2     4  PHE4        0.2340
     17 CG         -1.1008    0.2426    5.7023 C.ar    4  PHE4       -0.0451
     18 C           0.5183    2.8031    3.5495 C.2     3  GLY3        0.2331
     19 C           2.1670    3.8487    5.0713 C.3     0  UNK0        0.0040
     20 CA          1.4809    3.2373    2.4171 C.3     3  GLY3        0.0884
     21 CA          3.5035    2.6982    0.1861 C.3     2  ALA2        0.0966
     22 CA          5.3100    0.5000    2.9214 C.3     1  TYR1        0.0863
     23 CB          6.7246    1.1427    2.8086 C.3     1  TYR1       -0.0039
     24 CD1        -2.0554   -0.5300    6.3972 C.ar    4  PHE4       -0.0585
     25 CD2        -0.3598   -0.3777    4.6791 C.ar    4  PHE4       -0.0585
     26 C           1.9630    2.4720    0.0567 C.2     2  ALA2        0.2335
     27 C           4.4689    0.7599    1.5956 C.2     1  TYR1        0.2308
     28 CA          1.8060    0.2586    8.8599 C.3     5  GLY5        0.0348
     29 CG          7.6846    1.2535    4.0434 C.ar    1  TYR1       -0.0452
     30 CB          4.1670    2.5698   -1.1837 C.3     2  ALA2       -0.0381
     31 CE1        -2.2603   -1.8733    6.0481 C.ar    4  PHE4       -0.0615
     32 CE2        -0.5815   -1.7175    4.3305 C.ar    4  PHE4       -0.0615
     33 CZ         -1.5343   -2.4670    5.0129 C.ar    4  PHE4       -0.0617
     34 C           3.3354    0.2523    8.8603 C.3     5  GLY5        0.0597
     35 CD1         7.4079    0.5163    5.1853 C.ar    1  TYR1       -0.0551
     36 CD2         8.0056    2.5749    4.3193 C.ar    1  TYR1       -0.0551
     37 CE1         6.5649    1.1387    6.0985 C.ar    1  TYR1       -0.0199
     38 CE2         6.9406    3.2114    4.9390 C.ar    1  TYR1       -0.0199
     39 CZ          6.1940    2.4553    5.8322 C.ar    1  TYR1        0.1169
     40 C          -1.5541   -1.1121    0.6985 C.3     1  UNL1        0.0331
     41 C          -0.5126   -2.1570    0.4399 C.2     1  UNL1        0.3016
     42 HA          0.2355    3.3303    6.7519 H       4  PHE4        0.0600
     43 HB1        -1.2490    1.6959    7.1742 H       4  PHE4        0.0336
     44 HB2        -1.7708    2.2941    5.6296 H       4  PHE4        0.0336
     45 H           2.0282    4.5617    5.8893 H       0  UNK0        0.0429
     46 H           2.9477    3.1350    5.3124 H       0  UNK0        0.0429
     47 H           2.5085    4.4167    4.2054 H       0  UNK0        0.0429
     48 HA1         1.4788    4.3294    2.3436 H       3  GLY3        0.0558
     49 HA2         2.4778    2.8814    2.6653 H       3  GLY3        0.0558
     50 HA          3.5797    3.7673    0.4291 H       2  ALA2        0.0592
     51 HA          4.7374    0.9589    3.7378 H       1  TYR1        0.0557
     52 HB1         7.2814    0.7142    1.9717 H       1  TYR1        0.0333
     53 HB2         6.5463    2.1829    2.5064 H       1  TYR1        0.0333
     54 H           0.4138    1.8265    8.6019 H       5  GLY5        0.1488
     55 H           0.1442    2.6725    0.8885 H       3  GLY3        0.1492
     56 HD1        -2.6436   -0.1002    7.1926 H       4  PHE4        0.0620
     57 HD2         0.4099    0.1525    4.1252 H       4  PHE4        0.0620
     58 H           4.8293    2.7483    1.8201 H       2  ALA2        0.1495
     59 HA1         1.4423    0.3225    9.8905 H       5  GLY5        0.0484
     60 HA2         1.4217   -0.6649    8.4115 H       5  GLY5        0.0484
     61 HB1         3.7649    3.3503   -1.8475 H       2  ALA2        0.0252
     62 HB2         5.2506    2.7107   -1.1428 H       2  ALA2        0.0252
     63 HB3         3.9489    1.6098   -1.6627 H       2  ALA2        0.0252
     64 HE1        -2.9942   -2.4673    6.5930 H       4  PHE4        0.0618
     65 HE2        -0.0117   -2.1761    3.5266 H       4  PHE4        0.0618
     66 H1          6.0320   -1.3871    2.5451 H       1  TYR1        0.1189
     67 H2          4.4836   -1.3640    3.0264 H       1  TYR1        0.1189
     68 HZ         -1.7092   -3.5035    4.7364 H       4  PHE4        0.0618
     69 H1          3.7029   -0.5922    9.4490 H       5  GLY5        0.0573
     70 H2          3.7565    0.1588    7.8554 H       5  GLY5        0.0573
     71 HD1         7.6106   -0.5468    5.2580 H       1  TYR1        0.0621
     72 HD2         8.9519    2.6831    4.9018 H       1  TYR1        0.0621
     73 HE1         6.1030    0.5782    6.9050 H       1  TYR1        0.0654
     74 HE2         6.6701    4.2198    4.6263 H       1  TYR1        0.0654
     75 H           3.7408    2.1258    8.7465 H       5  GLY5        0.2095
     76 HH          4.9737    3.8525    6.2062 H       1  TYR1        0.2921
     77 H          -1.0856   -0.1953    1.0648 H       1  UNL1        0.0342
     78 H          -2.1176   -0.9211   -0.2179 H       1  UNL1        0.0342
     79 H          -2.2464   -1.4759    1.4633 H       1  UNL1        0.0342
     80 H           0.3536   -0.8242   -0.7197 H       1  UNL1        0.2950
@<TRIPOS>BOND
     1     1    16    2
     2     2    18    2
     3     3    26    2
     4     4    27    2
     5     5    34    1
     6     5    75    1
     7     6    39    1
     8     6    76    1
     9     7    41    1
    10     7    80    1
    11     8    41    2
    12     9    14    1
    13     9    18   am
    14     9    19    1
    15    10    16   am
    16    10    28    1
    17    10    54    1
    18    11    20    1
    19    11    26   am
    20    11    55    1
    21    12    21    1
    22    12    27   am
    23    12    58    1
    24    13    22    1
    25    13    66    1
    26    13    67    1
    27    14    15    1
    28    14    16    1
    29    14    42    1
    30    15    17    1
    31    15    43    1
    32    15    44    1
    33    17    24   ar
    34    17    25   ar
    35    18    20    1
    36    19    45    1
    37    19    46    1
    38    19    47    1
    39    20    48    1
    40    20    49    1
    41    21    26    1
    42    21    30    1
    43    21    50    1
    44    22    23    1
    45    22    27    1
    46    22    51    1
    47    23    29    1
    48    23    52    1
    49    23    53    1
    50    24    31   ar
    51    24    56    1
    52    25    32   ar
    53    25    57    1
    54    28    34    1
    55    28    59    1
    56    28    60    1
    57    29    35   ar
    58    29    36   ar
    59    30    61    1
    60    30    62    1
    61    30    63    1
    62    31    33   ar
    63    31    64    1
    64    32    33   ar
    65    32    65    1
    66    33    68    1
    67    34    69    1
    68    34    70    1
    69    35    37   ar
    70    35    71    1
    71    36    38   ar
    72    36    72    1
    73    37    39   ar
    74    37    73    1
    75    38    39   ar
    76    38    74    1
    77    40    41    1
    78    40    77    1
    79    40    78    1
    80    40    79    1
@<TRIPOS>MOLECULE
171382244
 80 80 0 0 0
SMALL
GASTEIGER

@<TRIPOS>ATOM
      1 O           9.8899    0.0911   -0.4880 O.2     4  PHE4       -0.2738
      2 O           8.5217   -0.8250    2.4168 O.2     3  GLY3       -0.2739
      3 O           5.8625    1.8374    2.6856 O.2     2  ALA2       -0.2738
      4 O           7.9947    2.9359    4.6869 O.2     1  TYR1       -0.2741
      5 O          13.8479    1.0247    2.1511 O.3     5  GLY5       -0.3935
      6 OH          6.4901    7.7413    2.9034 O.3     1  TYR1       -0.5068
      7 O           0.9733   -0.0334    0.0805 O.3     1  UNL1       -0.4808
      8 O           0.9246   -0.6966    1.7828 O.2     1  UNL1       -0.2513
      9 N           7.7687   -2.0458    0.5615 N.am    4  PHE4       -0.2914
     10 N          10.7654   -0.8920    1.4441 N.am    5  GLY5       -0.3116
     11 N           6.2193   -0.3845    3.7088 N.am    3  GLY3       -0.3052
     12 N           6.0716    3.3716    5.0507 N.am    2  ALA2       -0.3030
     13 N           8.8851    4.0493    6.5383 N.3     1  TYR1       -0.3197
     14 CA          9.0967   -2.1380   -0.0427 C.3     4  PHE4        0.1058
     15 CB          8.9957   -2.1738   -1.2542 C.3     4  PHE4       -0.0005
     16 C           9.9320   -0.8994    0.2767 C.2     4  PHE4        0.2340
     17 CG          8.2019   -0.7434   -1.8985 C.ar    4  PHE4       -0.0451
     18 C           7.5693   -1.3614    1.8111 C.2     3  GLY3        0.2331
     19 C           6.6360   -2.6758   -0.1309 C.3     0  UNK0        0.0040
     20 CA          6.2131   -1.2129    2.4604 C.3     3  GLY3        0.0884
     21 CA          6.0647    1.7108    5.1288 C.3     2  ALA2        0.0966
     22 CA          7.5677    4.5601    6.2340 C.3     1  TYR1        0.0863
     23 CB          7.4163    5.8210    5.9251 C.3     1  TYR1       -0.0039
     24 CD1         7.6724    0.4307   -1.1365 C.ar    4  PHE4       -0.0585
     25 CD2         7.6424   -0.6759   -2.7413 C.ar    4  PHE4       -0.0585
     26 C           6.0153    1.3006    3.6660 C.2     2  ALA2        0.2335
     27 C           7.1840    3.7868    5.1005 C.2     1  TYR1        0.2308
     28 CA         11.5980    0.2752    1.7869 C.3     5  GLY5        0.0348
     29 CG          4.8880    5.7802    5.6509 C.ar    1  TYR1       -0.0452
     30 CB          6.6588    1.2797    6.2946 C.3     2  ALA2       -0.0381
     31 CE1         7.1170    1.4459   -1.5424 C.ar    4  PHE4       -0.0615
     32 CE2         7.1339    0.1991   -3.4119 C.ar    4  PHE4       -0.0615
     33 CZ          6.8606    1.3216   -2.7822 C.ar    4  PHE4       -0.0617
     34 C          13.0653   -0.1028    1.8287 C.3     5  GLY5        0.0597
     35 CD1         4.8825    5.9166    5.6829 C.ar    1  TYR1       -0.0551
     36 CD2         3.5306    6.1987    3.8213 C.ar    1  TYR1       -0.0551
     37 CE1         5.4671    6.4341    3.3311 C.ar    1  TYR1       -0.0199
     38 CE2         4.9310    7.5590    3.2094 C.ar    1  TYR1       -0.0199
     39 CZ          5.3032    7.3025    2.7667 C.ar    1  TYR1        0.1169
     40 C          -1.2512   -0.6237    1.1453 C.3     1  UNL1        0.0331
     41 C           0.2519   -0.5683    1.0460 C.2     1  UNL1        0.3016
     42 HA          9.5722   -3.0270    0.2647 H       4  PHE4        0.0600
     43 HB1         9.7799   -2.3974   -1.5951 H       4  PHE4        0.0336
     44 HB2         8.4396   -2.7646   -1.4171 H       4  PHE4        0.0336
     45 H           6.5083   -2.2403   -1.1106 H       0  UNK0        0.0429
     46 H           6.8115   -3.7349   -0.2425 H       0  UNK0        0.0429
     47 H           5.7401   -2.5250    0.4377 H       0  UNK0        0.0429
     48 HA1         5.7341   -0.9898    1.9289 H       3  GLY3        0.0558
     49 HA2         5.7542   -2.0852    2.7113 H       3  GLY3        0.0558
     50 HA          5.0472    1.2621    6.0061 H       2  ALA2        0.0592
     51 HA          7.0486    4.2419    7.0993 H       1  TYR1        0.0557
     52 HB1         7.5810    6.5329    7.0668 H       1  TYR1        0.0333
     53 HB2         7.9033    6.4614    5.6113 H       1  TYR1        0.0333
     54 H          10.7774   -1.7036    2.0783 H       5  GLY5        0.1488
     55 H           6.6243   -0.6877    4.4967 H       3  GLY3        0.1492
     56 HD1         7.2532    0.2301   -0.0543 H       4  PHE4        0.0620
     57 HD2         7.6472   -1.5039   -3.1373 H       4  PHE4        0.0620
     58 H           5.2443    3.9968    5.3860 H       2  ALA2        0.1495
     59 HA1        11.4519    1.0452    1.0576 H       5  GLY5        0.0484
     60 HA2        11.3310    0.6657    2.7336 H       5  GLY5        0.0484
     61 HB1         6.3978    1.6011    7.1941 H       2  ALA2        0.0252
     62 HB2         6.6104    0.3306    6.7585 H       2  ALA2        0.0252
     63 HB3         7.4331    1.2677    5.8495 H       2  ALA2        0.0252
     64 HE1         6.8682    2.3478   -0.9600 H       4  PHE4        0.0618
     65 HE2         6.9677   -0.0246   -4.4370 H       4  PHE4        0.0618
     66 H1          9.4075    4.6732    7.1134 H       1  TYR1        0.1189
     67 H2          9.0868    3.2038    6.3164 H       1  TYR1        0.1189
     68 HZ          6.4141    2.1138   -3.2924 H       4  PHE4        0.0618
     69 H1         13.2213   -0.8800    2.5542 H       5  GLY5        0.0573
     70 H2         13.3560   -0.5105    0.9339 H       5  GLY5        0.0573
     71 HD1         3.8359    5.9019    5.7106 H       1  TYR1        0.0621
     72 HD2         2.1294    5.9512    2.6480 H       1  TYR1        0.0621
     73 HE1         4.1935    5.0071    2.5269 H       1  TYR1        0.0654
     74 HE2         6.3019    6.9868    4.8322 H       1  TYR1        0.0654
     75 H          13.7068    1.7375    1.4657 H       5  GLY5        0.2095
     76 HH          7.1231    8.1123    2.7289 H       1  TYR1        0.2921
     77 H          -1.6073    0.3792    1.1523 H       1  UNL1        0.0342
     78 H          -1.6072   -1.1519    0.2916 H       1  UNL1        0.0342
     79 H          -1.6966   -1.0953    1.9931 H       1  UNL1        0.0342
     80 H           1.9757   -0.0288    0.0884 H       1  UNL1        0.2950
@<TRIPOS>BOND
     1     1    16    2
     2     2    18    2
     3     3    26    2
     4     4    27    2
     5     5    34    1
     6     5    75    1
     7     6    39    1
     8     6    76    1
     9     7    41    1
    10     7    80    1
    11     8    41    2
    12    14     9    1
    13     9    18   am
    14     9    19    1
    15    10    16   am
    16    10    28    1
    17    10    54    1
    18    11    20    1
    19    11    26   am
    20    11    55    1
    21    12    27   am
    22    12    58    1
    23    22    13    1
    24    13    66    1
    25    13    67    1
    26    14    15    1
    27    14    16    1
    28    14    42    1
    29    15    17    1
    30    15    43    1
    31    15    44    1
    32    17    24   ar
    33    17    25   ar
    34    18    20    1
    35    19    45    1
    36    19    46    1
    37    19    47    1
    38    20    48    1
    39    20    49    1
    40    21    30    1
    41    21    50    1
    42    22    23    1
    43    22    27    1
    44    22    51    1
    45    23    29    1
    46    23    52    1
    47    23    53    1
    48    24    31   ar
    49    24    56    1
    50    25    32   ar
    51    25    57    1
    52    28    34    1
    53    28    59    1
    54    28    60    1
    55    29    35   ar
    56    29    36   ar
    57    30    61    1
    58    30    62    1
    59    30    63    1
    60    31    33   ar
    61    31    64    1
    62    32    33   ar
    63    32    65    1
    64    33    68    1
    65    34    69    1
    66    34    70    1
    67    35    37   ar
    68    35    71    1
    69    36    38   ar
    70    36    72    1
    71    37    39   ar
    72    37    73    1
    73    38    39   ar
    74    38    74    1
    75    40    41    1
    76    40    77    1
    77    40    78    1
    78    40    79    1
    79    21    26    1
    80    21    12    1
@<TRIPOS>MOLECULE
5485228
 80 80 0 0 0
SMALL
GASTEIGER

@<TRIPOS>ATOM
      1 O           6.6066   -5.6385    4.0033 O.2     4  PHE4       -0.2738
      2 O           5.6762   -3.2028    2.7600 O.2     3  GLY3       -0.2739
      3 O           6.5833   -0.4554    1.6859 O.2     2  ALA2       -0.2738
      4 O           6.0444    1.4240    0.2265 O.2     1  TYR1       -0.2741
      5 O           9.9216   -6.8349    2.7574 O.3     5  GLY5       -0.3935
      6 OH          9.9087    2.5952   -2.2347 O.3     1  TYR1       -0.5068
      7 O           0.8140    0.2299    0.1270 O.3     1  UNL1       -0.4808
      8 O           0.8640    0.9888    2.1870 O.2     1  UNL1       -0.2513
      9 N           4.9246   -4.7822    1.1943 N.am    4  PHE4       -0.2914
     10 N           7.7961   -5.0646    2.0562 N.am    5  GLY5       -0.3116
     11 N           4.3367   -1.1444    1.9043 N.am    3  GLY3       -0.3052
     12 N           4.5247    2.2560    1.6196 N.am    2  ALA2       -0.3030
     13 N           4.8809    4.8896   -0.0986 N.3     1  TYR1       -0.3197
     14 CA          5.3656   -5.9159    1.9750 C.3     4  PHE4        0.1058
     15 CB          5.6444   -6.8339    1.1146 C.3     4  PHE4       -0.0005
     16 C           6.6304   -5.5650    2.7566 C.2     4  PHE4        0.2340
     17 CG          4.2470   -7.2072    0.3164 C.ar    4  PHE4       -0.0451
     18 C           5.1193   -3.4417    1.6640 C.2     3  GLY3        0.2331
     19 C           4.2626   -5.0021   -0.0986 C.3     0  UNK0        0.0040
     20 CA          4.6794   -2.3296    0.8912 C.3     3  GLY3        0.0884
     21 CA          5.0147    1.3532    2.5269 C.3     2  ALA2        0.0966
     22 CA          5.0963    3.5845   -0.4344 C.3     1  TYR1        0.0863
     23 CB          6.4123    3.6372   -1.1757 C.3     1  TYR1       -0.0039
     24 CD1         2.1938   -5.7118    1.1544 C.ar    4  PHE4       -0.0585
     25 CD2         3.6566   -8.4862    0.3431 C.ar    4  PHE4       -0.0585
     26 C           5.5588   -0.1468    2.2510 C.2     2  ALA2        0.2335
     27 C           5.3817    2.4244    0.4718 C.2     1  TYR1        0.2308
     28 CA          8.9940   -4.6257    2.7875 C.3     5  GLY5        0.0348
     29 CG          6.4953    1.1570   -1.7465 C.ar    1  TYR1       -0.0452
     30 CB          6.0776    2.7895    3.5378 C.3     2  ALA2       -0.0381
     31 CE1         1.2707   -6.4327    0.8725 C.ar    4  PHE4       -0.0615
     32 CE2         2.4261   -8.6850    0.0961 C.ar    4  PHE4       -0.0615
     33 CZ          1.3181   -7.8168    0.2714 C.ar    4  PHE4       -0.0617
     34 C           9.5624   -5.7672    3.6083 C.3     5  GLY5        0.0597
     35 CD1         6.5117    1.1938   -1.8852 C.ar    1  TYR1       -0.0551
     36 CD2         8.3407   -0.4935   -2.0452 C.ar    1  TYR1       -0.0551
     37 CE1         8.9038    1.3493   -1.5395 C.ar    1  TYR1       -0.0199
     38 CE2         9.5406    1.1138   -2.6613 C.ar    1  TYR1       -0.0199
     39 CZ          9.8452    1.3159   -2.1371 C.ar    1  TYR1        0.1169
     40 C          -1.2798    0.5288    1.1988 C.3     1  UNL1        0.0331
     41 C           0.2246    0.5400    1.2127 C.2     1  UNL1        0.3016
     42 HA          4.5775   -6.2323    2.6294 H       4  PHE4        0.0600
     43 HB1         6.4704   -6.6058    0.7376 H       4  PHE4        0.0336
     44 HB2         5.3457   -7.3608    1.2888 H       4  PHE4        0.0336
     45 H           4.9200   -5.5547   -0.7607 H       0  UNK0        0.0429
     46 H           3.4592   -5.5851   -0.0431 H       0  UNK0        0.0429
     47 H           3.9804   -4.1020   -0.5398 H       0  UNK0        0.0429
     48 HA1         5.3633   -2.2319    0.2778 H       3  GLY3        0.0558
     49 HA2         4.0704   -2.5836    0.4251 H       3  GLY3        0.0558
     50 HA          4.3059    0.9645    3.0061 H       2  ALA2        0.0592
     51 HA          4.1398    3.3590   -0.9040 H       1  TYR1        0.0557
     52 HB1         5.8773    4.2588   -2.2116 H       1  TYR1        0.0333
     53 HB2         7.0169    3.8092   -1.1672 H       1  TYR1        0.0333
     54 H           7.8049   -5.0333    1.0279 H       5  GLY5        0.1488
     55 H           3.4774   -0.8071    2.0137 H       3  GLY3        0.1492
     56 HD1         2.6016   -5.2735    1.9679 H       4  PHE4        0.0620
     57 HD2         4.1318   -8.8542    0.5790 H       4  PHE4        0.0620
     58 H           3.8877    3.0898    2.0085 H       2  ALA2        0.1495
     59 HA1         9.7358   -4.2862    2.0882 H       5  GLY5        0.0484
     60 HA2         8.7616   -3.8223    3.4380 H       5  GLY5        0.0484
     61 HB1         5.6872    3.1456    3.9681 H       2  ALA2        0.0252
     62 HB2         6.3888    1.9256    4.5509 H       2  ALA2        0.0252
     63 HB3         7.0861    2.8349    3.1540 H       2  ALA2        0.0252
     64 HE1         0.6671   -5.9381    1.0610 H       4  PHE4        0.0618
     65 HE2         2.4383   -9.5913   -0.2849 H       4  PHE4        0.0618
     66 H1          4.7936    5.6550   -0.5147 H       1  TYR1        0.1189
     67 H2          4.0745    5.1352    0.7482 H       1  TYR1        0.1189
     68 HZ          0.4144   -8.1333   -0.0174 H       4  PHE4        0.0618
     69 H1         10.4298   -5.4274    4.1508 H       5  GLY5        0.0573
     70 H2          8.8403   -6.0990    4.3191 H       5  GLY5        0.0573
     71 HD1         6.4417    0.1270   -2.3098 H       1  TYR1        0.0621
     72 HD2         9.1579   -2.0630   -1.8902 H       1  TYR1        0.0621
     73 HE1         9.0397   -0.3813   -0.3367 H       1  TYR1        0.0654
     74 HE2         7.8418    2.5796   -2.3247 H       1  TYR1        0.0654
     75 H           9.1136   -7.1505    2.2617 H       5  GLY5        0.2095
     76 HH         10.2758    3.2467   -2.3042 H       1  TYR1        0.2921
     77 H          -1.6448    1.1111    0.3680 H       1  UNL1        0.0342
     78 H          -1.6447   -0.4798    1.1072 H       1  UNL1        0.0342
     79 H          -1.6453    0.9559    2.1152 H       1  UNL1        0.0342
     80 H           1.7647    0.3162    0.1626 H       1  UNL1        0.2950
@<TRIPOS>BOND
     1     1    16    2
     2     2    18    2
     3     3    26    2
     4     4    27    2
     5     5    34    1
     6     5    75    1
     7     6    39    1
     8     6    76    1
     9     7    41    1
    10     7    80    1
    11     8    41    2
    12    14     9    1
    13     9    18   am
    14     9    19    1
    15    10    16   am
    16    10    28    1
    17    10    54    1
    18    11    20    1
    19    11    26   am
    20    11    55    1
    21    12    27   am
    22    12    58    1
    23    22    13    1
    24    13    66    1
    25    13    67    1
    26    14    15    1
    27    14    16    1
    28    14    42    1
    29    15    17    1
    30    15    43    1
    31    15    44    1
    32    17    24   ar
    33    17    25   ar
    34    18    20    1
    35    19    45    1
    36    19    46    1
    37    19    47    1
    38    20    48    1
    39    20    49    1
    40    21    30    1
    41    21    50    1
    42    22    23    1
    43    22    27    1
    44    22    51    1
    45    23    29    1
    46    23    52    1
    47    23    53    1
    48    24    31   ar
    49    24    56    1
    50    25    32   ar
    51    25    57    1
    52    28    34    1
    53    28    59    1
    54    28    60    1
    55    29    35   ar
    56    29    36   ar
    57    30    61    1
    58    30    62    1
    59    30    63    1
    60    31    33   ar
    61    31    64    1
    62    32    33   ar
    63    32    65    1
    64    33    68    1
    65    34    69    1
    66    34    70    1
    67    35    37   ar
    68    35    71    1
    69    36    38   ar
    70    36    72    1
    71    37    39   ar
    72    37    73    1
    73    38    39   ar
    74    38    74    1
    75    40    41    1
    76    40    77    1
    77    40    78    1
    78    40    79    1
    79    21    26    1
    80    21    12    1
