@<TRIPOS>MOLECULE
13505
 66 69 0 0 0
SMALL
GASTEIGER

@<TRIPOS>ATOM
      1 O           5.1064    1.6417    0.9234 O.3     1  UNL1       -0.4643
      2 O           4.8454    2.4900   -1.2093 O.2     1  UNL1       -0.2498
      3 N           0.4891    0.5672   -0.9424 N.3     1  UNL1       -0.3022
      4 N          -3.8944   -0.0848   -3.1695 N.1     1  UNL1       -0.1953
      5 C           3.4247    0.6946   -0.4206 C.3     1  UNL1        0.0949
      6 C           2.7769    0.8425   -1.8233 C.3     1  UNL1       -0.0203
      7 C           2.3428    1.1153    0.6102 C.3     1  UNL1       -0.0203
      8 C           1.4505    0.0860   -1.9403 C.3     1  UNL1        0.0002
      9 C           1.0045    0.3892    0.4196 C.3     1  UNL1        0.0002
     10 C          -0.7974   -0.1106   -1.0983 C.3     1  UNL1        0.0009
     11 C           4.0550   -0.6899   -0.2090 C.ar    1  UNL1       -0.0305
     12 C           4.5329    1.7204   -0.3110 C.2     1  UNL1        0.3178
     13 C          -1.9185    0.7398   -0.4739 C.3     1  UNL1       -0.0135
     14 C          -3.3638    0.1239   -0.5753 C.3     1  UNL1        0.1082
     15 C           3.6262   -1.4981    0.8440 C.ar    1  UNL1       -0.0575
     16 C           5.0567   -1.1389   -1.0697 C.ar    1  UNL1       -0.0575
     17 C          -3.3728   -1.2296    0.1764 C.ar    1  UNL1       -0.0232
     18 C          -4.4623    1.0467    0.0167 C.ar    1  UNL1       -0.0232
     19 C           4.1991   -2.7553    1.0360 C.ar    1  UNL1       -0.0615
     20 C           5.6294   -2.3962   -0.8776 C.ar    1  UNL1       -0.0615
     21 C          -3.6627   -0.0025   -2.0348 C.1     1  UNL1        0.0787
     22 C           5.2007   -3.2043    0.1753 C.ar    1  UNL1       -0.0617
     23 C           6.1762    2.5613    1.1642 C.3     1  UNL1        0.0897
     24 C          -3.6433   -2.4100   -0.5159 C.ar    1  UNL1       -0.0568
     25 C          -4.1075    2.2456    0.6353 C.ar    1  UNL1       -0.0568
     26 C          -3.1100   -1.2688    1.5458 C.ar    1  UNL1       -0.0568
     27 C          -5.8046    0.6769   -0.0694 C.ar    1  UNL1       -0.0568
     28 C           6.7025    2.3491    2.5676 C.3     1  UNL1       -0.0306
     29 C          -3.6512   -3.6296    0.1611 C.ar    1  UNL1       -0.0614
     30 C          -5.0951    3.0746    1.1676 C.ar    1  UNL1       -0.0614
     31 C          -3.1178   -2.4884    2.2227 C.ar    1  UNL1       -0.0614
     32 C          -6.7920    1.5060    0.4628 C.ar    1  UNL1       -0.0614
     33 C          -3.3884   -3.6687    1.5302 C.ar    1  UNL1       -0.0617
     34 C          -6.4372    2.7047    1.0813 C.ar    1  UNL1       -0.0617
     35 H           3.4515    0.5041   -2.6191 H       1  UNL1        0.0291
     36 H           2.5764    1.9025   -2.0382 H       1  UNL1        0.0291
     37 H           2.1550    2.1956    0.5122 H       1  UNL1        0.0291
     38 H           2.6881    0.9851    1.6438 H       1  UNL1        0.0291
     39 H           1.0563    0.2618   -2.9490 H       1  UNL1        0.0427
     40 H           1.6175   -0.9942   -1.8418 H       1  UNL1        0.0427
     41 H           0.3155    0.8197    1.1537 H       1  UNL1        0.0427
     42 H           1.0789   -0.6754    0.6583 H       1  UNL1        0.0427
     43 H          -0.7661   -1.1219   -0.6761 H       1  UNL1        0.0427
     44 H          -1.0192   -0.2255   -2.1661 H       1  UNL1        0.0427
     45 H          -1.6827    0.9284    0.5788 H       1  UNL1        0.0299
     46 H          -1.9044    1.7181   -0.9781 H       1  UNL1        0.0299
     47 H           2.8881   -1.1906    1.5732 H       1  UNL1        0.0621
     48 H           5.4123   -0.5239   -1.8916 H       1  UNL1        0.0621
     49 H           3.8735   -3.3811    1.8619 H       1  UNL1        0.0618
     50 H           6.4110   -2.7450   -1.5462 H       1  UNL1        0.0618
     51 H           5.6488   -4.1820    0.3267 H       1  UNL1        0.0618
     52 H           5.8063    3.5872    1.0585 H       1  UNL1        0.0694
     53 H           6.9777    2.3867    0.4378 H       1  UNL1        0.0694
     54 H          -3.8532   -2.4344   -1.5796 H       1  UNL1        0.0621
     55 H          -3.0829    2.5843    0.7340 H       1  UNL1        0.0621
     56 H          -2.9005   -0.3629    2.1075 H       1  UNL1        0.0621
     57 H          -6.1044   -0.2535   -0.5442 H       1  UNL1        0.0621
     58 H           7.0588    1.3214    2.6938 H       1  UNL1        0.0262
     59 H           5.9071    2.5021    3.3044 H       1  UNL1        0.0262
     60 H           7.5238    3.0373    2.7858 H       1  UNL1        0.0262
     61 H          -3.8617   -4.5491   -0.3773 H       1  UNL1        0.0618
     62 H          -4.8198    4.0079    1.6500 H       1  UNL1        0.0618
     63 H          -2.9140   -2.5191    3.2891 H       1  UNL1        0.0618
     64 H          -7.8371    1.2179    0.3965 H       1  UNL1        0.0618
     65 H          -3.3946   -4.6182    2.0574 H       1  UNL1        0.0618
     66 H          -7.2060    3.3501    1.4961 H       1  UNL1        0.0618
@<TRIPOS>BOND
     1     1    12    1
     2     1    23    1
     3     2    12    2
     4     3     8    1
     5     3     9    1
     6     3    10    1
     7     4    21    3
     8     5     6    1
     9     5     7    1
    10     5    11    1
    11     5    12    1
    12     6     8    1
    13     6    35    1
    14     6    36    1
    15     7     9    1
    16     7    37    1
    17     7    38    1
    18     8    39    1
    19     8    40    1
    20     9    41    1
    21     9    42    1
    22    10    13    1
    23    10    43    1
    24    10    44    1
    25    11    15   ar
    26    11    16   ar
    27    13    14    1
    28    13    45    1
    29    13    46    1
    30    14    17    1
    31    14    18    1
    32    14    21    1
    33    15    19   ar
    34    15    47    1
    35    16    20   ar
    36    16    48    1
    37    17    24   ar
    38    17    26   ar
    39    18    25   ar
    40    18    27   ar
    41    19    22   ar
    42    19    49    1
    43    20    22   ar
    44    20    50    1
    45    22    51    1
    46    23    28    1
    47    23    52    1
    48    23    53    1
    49    24    29   ar
    50    24    54    1
    51    25    30   ar
    52    25    55    1
    53    26    31   ar
    54    26    56    1
    55    27    32   ar
    56    27    57    1
    57    28    58    1
    58    28    59    1
    59    28    60    1
    60    29    33   ar
    61    29    61    1
    62    30    34   ar
    63    30    62    1
    64    31    33   ar
    65    31    63    1
    66    32    34   ar
    67    32    64    1
    68    33    65    1
    69    34    66    1
