@<TRIPOS>MOLECULE
58619550
 75 78 0 0 0
SMALL
GASTEIGER

@<TRIPOS>ATOM
      1 O           0.4298   -5.0022   -2.2960 O.3     1  UNL1       -0.5068
      2 O           6.3844   -0.0541   -0.6773 O.2     1  UNL1       -0.2700
      3 N          -0.7921   -0.3752    0.0423 N.3     1  UNL1       -0.2861
      4 N          -3.0920    1.3137   -0.3014 N.3     1  UNL1       -0.2928
      5 N           5.8562    2.1214   -0.0049 N.am    1  UNL1       -0.2981
      6 C          -2.1458   -0.9532    0.1282 C.3     1  UNL1        0.0213
      7 C          -1.7384    1.8914   -0.3873 C.3     1  UNL1        0.0207
      8 C          -0.7617    1.0349    0.4467 C.3     1  UNL1        0.0155
      9 C          -3.1226   -0.0964   -0.7056 C.3     1  UNL1        0.0149
     10 C           0.2189   -1.1534    0.7499 C.3     1  UNL1        0.0614
     11 C          -4.1030    2.0918   -1.0093 C.3     1  UNL1        0.0244
     12 C          -2.6813   -1.1509    1.5568 C.3     1  UNL1       -0.0483
     13 C          -1.2028    2.0888   -1.8159 C.3     1  UNL1       -0.0483
     14 C           1.6295   -0.6470    0.4872 C.ar    1  UNL1       -0.0258
     15 C           0.0939   -2.6460    0.4821 C.ar    1  UNL1       -0.0224
     16 C          -5.4689    1.9239   -0.3986 C.ar    1  UNL1       -0.0334
     17 C           1.9672   -0.1460   -0.7702 C.ar    1  UNL1       -0.0560
     18 C           2.5847   -0.6837    1.5029 C.ar    1  UNL1       -0.0560
     19 C           0.3222   -3.1464   -0.7997 C.ar    1  UNL1       -0.0152
     20 C          -0.2498   -3.5138    1.5188 C.ar    1  UNL1       -0.0565
     21 C          -5.8901    2.7850    0.6145 C.ar    1  UNL1       -0.0573
     22 C          -6.3131    0.9072   -0.8454 C.ar    1  UNL1       -0.0573
     23 C           3.2601    0.3184   -1.0114 C.ar    1  UNL1       -0.0493
     24 C           3.8776   -0.2194    1.2616 C.ar    1  UNL1       -0.0493
     25 C           0.2070   -4.5146   -1.0449 C.ar    1  UNL1        0.1172
     26 C          -0.3651   -4.8819    1.2734 C.ar    1  UNL1       -0.0580
     27 C           4.2154    0.2818    0.0044 C.ar    1  UNL1        0.0369
     28 C          -0.1369   -5.3824   -0.0085 C.ar    1  UNL1       -0.0202
     29 C          -7.1552    2.6296    1.1811 C.ar    1  UNL1       -0.0615
     30 C          -7.5783    0.7517   -0.2790 C.ar    1  UNL1       -0.0615
     31 C          -7.9993    1.6130    0.7342 C.ar    1  UNL1       -0.0617
     32 C           5.5634    0.7665   -0.2465 C.2     1  UNL1        0.2466
     33 C           4.8542    3.0553    0.5044 C.3     1  UNL1        0.0121
     34 C           7.1774    2.6841   -0.2463 C.3     1  UNL1        0.0121
     35 C           4.0979    3.7266   -0.6232 C.3     1  UNL1       -0.0493
     36 C           8.0568    2.5814    0.9827 C.3     1  UNL1       -0.0493
     37 H          -2.1621   -1.9341   -0.3611 H       1  UNL1        0.0473
     38 H          -1.7676    2.8818    0.0870 H       1  UNL1        0.0472
     39 H           0.2295    1.4886    0.3451 H       1  UNL1        0.0442
     40 H          -1.0207    1.1327    1.5101 H       1  UNL1        0.0442
     41 H          -2.8837   -0.2023   -1.7721 H       1  UNL1        0.0442
     42 H          -4.1183   -0.5278   -0.5688 H       1  UNL1        0.0442
     43 H           0.0523   -1.0009    1.8270 H       1  UNL1        0.0562
     44 H          -4.1326    1.8534   -2.0812 H       1  UNL1        0.0476
     45 H          -3.8618    3.1630   -0.9623 H       1  UNL1        0.0476
     46 H          -2.8336   -0.1946    2.0686 H       1  UNL1        0.0245
     47 H          -2.0487   -1.7576    2.1991 H       1  UNL1        0.0245
     48 H          -3.6575   -1.6487    1.5194 H       1  UNL1        0.0245
     49 H          -1.1209    1.1461   -2.3657 H       1  UNL1        0.0245
     50 H          -0.2046    2.5400   -1.7874 H       1  UNL1        0.0245
     51 H          -1.8425    2.7633   -2.3938 H       1  UNL1        0.0245
     52 H           1.2516   -0.1155   -1.5869 H       1  UNL1        0.0621
     53 H           2.3361   -1.0729    2.4866 H       1  UNL1        0.0621
     54 H           0.5764   -2.4869   -1.6244 H       1  UNL1        0.0657
     55 H          -0.3998   -3.1525    2.5320 H       1  UNL1        0.0621
     56 H          -5.2416    3.5797    0.9737 H       1  UNL1        0.0621
     57 H          -6.0094    0.2394   -1.6469 H       1  UNL1        0.0621
     58 H           3.5146    0.6949   -1.9988 H       1  UNL1        0.0625
     59 H           4.6141   -0.2528    2.0603 H       1  UNL1        0.0625
     60 H          -0.6253   -5.5587    2.0821 H       1  UNL1        0.0619
     61 H          -0.2285   -6.4506   -0.1861 H       1  UNL1        0.0654
     62 H          -7.4830    3.2998    1.9704 H       1  UNL1        0.0618
     63 H          -8.2372   -0.0371   -0.6298 H       1  UNL1        0.0618
     64 H          -8.9847    1.4925    1.1746 H       1  UNL1        0.0618
     65 H           0.3065   -5.9669   -2.2845 H       1  UNL1        0.2921
     66 H           4.1470    2.5418    1.1609 H       1  UNL1        0.0462
     67 H           5.3537    3.8096    1.1232 H       1  UNL1        0.0462
     68 H           7.6480    2.1259   -1.0635 H       1  UNL1        0.0462
     69 H           7.0814    3.7247   -0.5737 H       1  UNL1        0.0462
     70 H           3.3535    4.4189   -0.2169 H       1  UNL1        0.0245
     71 H           3.5761    3.0132   -1.2633 H       1  UNL1        0.0245
     72 H           4.7755    4.3022   -1.2625 H       1  UNL1        0.0245
     73 H           9.0506    2.9901    0.7755 H       1  UNL1        0.0245
     74 H           8.1752    1.5392    1.2973 H       1  UNL1        0.0245
     75 H           7.6296    3.1355    1.8247 H       1  UNL1        0.0245
@<TRIPOS>BOND
     1     1    25    1
     2     1    65    1
     3     2    32    2
     4     3     6    1
     5     3     8    1
     6     3    10    1
     7     4     7    1
     8     4     9    1
     9     4    11    1
    10     5    32   am
    11     5    33    1
    12     5    34    1
    13     6     9    1
    14     6    12    1
    15     6    37    1
    16     7     8    1
    17     7    13    1
    18     7    38    1
    19     8    39    1
    20     8    40    1
    21     9    41    1
    22     9    42    1
    23    10    14    1
    24    10    15    1
    25    10    43    1
    26    11    16    1
    27    11    44    1
    28    11    45    1
    29    12    46    1
    30    12    47    1
    31    12    48    1
    32    13    49    1
    33    13    50    1
    34    13    51    1
    35    14    17   ar
    36    14    18   ar
    37    15    19   ar
    38    15    20   ar
    39    16    21   ar
    40    16    22   ar
    41    17    23   ar
    42    17    52    1
    43    18    24   ar
    44    18    53    1
    45    19    25   ar
    46    19    54    1
    47    20    26   ar
    48    20    55    1
    49    21    29   ar
    50    21    56    1
    51    22    30   ar
    52    22    57    1
    53    23    27   ar
    54    23    58    1
    55    24    27   ar
    56    24    59    1
    57    25    28   ar
    58    26    28   ar
    59    26    60    1
    60    27    32    1
    61    28    61    1
    62    29    31   ar
    63    29    62    1
    64    30    31   ar
    65    30    63    1
    66    31    64    1
    67    33    35    1
    68    33    66    1
    69    33    67    1
    70    34    36    1
    71    34    68    1
    72    34    69    1
    73    35    70    1
    74    35    71    1
    75    35    72    1
    76    36    73    1
    77    36    74    1
    78    36    75    1
