@<TRIPOS>MOLECULE
6022
 42 44 0 0 0
SMALL
GASTEIGER

@<TRIPOS>ATOM
      1 P          -3.0310    1.0308    0.9657 P.3     1  UNL1        0.4834
      2 P          -3.8752   -1.1051   -0.8725 P.3     1  UNL1        0.4808
      3 O           1.2372    1.6709    1.0895 O.3     1  UNL1       -0.3456
      4 O           3.3274    2.3717   -1.7496 O.3     1  UNL1       -0.3847
      5 O           2.2049    4.2750   -0.1676 O.3     1  UNL1       -0.3864
      6 O          -1.5662    1.6947    1.1468 O.3     1  UNL1       -0.2837
      7 O          -2.8145   -0.1382   -0.1299 O.3     1  UNL1       -0.1862
      8 O          -3.8812    2.1443    0.1567 O.3     1  UNL1       -0.3022
      9 O          -3.6735    0.5673    2.2409 O.2     1  UNL1       -0.2269
     10 O          -2.9610   -1.8981   -1.9437 O.3     1  UNL1       -0.3023
     11 O          -4.7324   -0.0856   -1.7880 O.3     1  UNL1       -0.3023
     12 O          -4.6815   -1.9735    0.0475 O.2     1  UNL1       -0.2271
     13 N           2.6465   -0.0300    0.2230 N.ar    1  UNL1       -0.2855
     14 N           3.7755   -1.9507    0.1023 N.ar    1  UNL1       -0.2306
     15 N           0.3757   -0.8891    0.3117 N.ar    1  UNL1       -0.2159
     16 N           0.3453   -3.3282    0.2346 N.ar    1  UNL1       -0.2188
     17 N           2.3456   -4.6341    0.0918 N.pl3   1  UNL1       -0.3413
     18 C           2.1310    2.0484   -1.0710 C.3     1  UNL1        0.1285
     19 C           1.3259    3.2696   -0.6722 C.3     1  UNL1        0.1135
     20 C           2.4014    1.4092    0.2825 C.3     1  UNL1        0.1667
     21 C           0.4758    2.7376    0.4772 C.3     1  UNL1        0.1134
     22 C          -0.8591    2.1703    0.0149 C.3     1  UNL1        0.0879
     23 C           1.7085   -1.0242    0.2390 C.ar    1  UNL1        0.1674
     24 C           3.8723   -0.6381    0.1394 C.ar    1  UNL1        0.1004
     25 C           2.4285   -2.2058    0.1640 C.ar    1  UNL1        0.1473
     26 C           1.6969   -3.3893    0.1637 C.ar    1  UNL1        0.1472
     27 C          -0.2229   -2.1000    0.3033 C.ar    1  UNL1        0.1205
     28 H           1.5324    1.3895   -1.7105 H       1  UNL1        0.0665
     29 H           0.7585    3.7052   -1.4996 H       1  UNL1        0.0647
     30 H           3.2685    1.8535    0.7872 H       1  UNL1        0.0866
     31 H           0.3102    3.4906    1.2560 H       1  UNL1        0.0647
     32 H          -0.7205    1.3439   -0.6876 H       1  UNL1        0.0592
     33 H          -1.4498    2.9508   -0.4749 H       1  UNL1        0.0592
     34 H           3.8263    2.9981   -1.1979 H       1  UNL1        0.2101
     35 H           1.6543    5.0227    0.1215 H       1  UNL1        0.2100
     36 H           4.7952   -0.0752    0.1078 H       1  UNL1        0.1030
     37 H          -1.3020   -2.1011    0.3831 H       1  UNL1        0.1048
     38 H           3.3541   -4.6822    0.0385 H       1  UNL1        0.1438
     39 H           1.7921   -5.4800    0.0929 H       1  UNL1        0.1438
     40 H          -4.2591    2.9031    0.6502 H       1  UNL1        0.2220
     41 H          -3.3647   -2.6208   -2.4700 H       1  UNL1        0.2220
     42 H          -5.5050   -0.4288   -2.2854 H       1  UNL1        0.2220
@<TRIPOS>BOND
     1     1     6    1
     2     1     7    1
     3     1     8    1
     4     1     9    2
     5     2     7    1
     6     2    10    1
     7     2    11    1
     8     2    12    2
     9     3    20    1
    10     3    21    1
    11     4    18    1
    12     4    34    1
    13     5    19    1
    14     5    35    1
    15     6    22    1
    16     8    40    1
    17    10    41    1
    18    11    42    1
    19    13    20    1
    20    13    23   ar
    21    13    24   ar
    22    14    24   ar
    23    14    25   ar
    24    15    23   ar
    25    15    27   ar
    26    16    26   ar
    27    16    27   ar
    28    17    26    1
    29    17    38    1
    30    17    39    1
    31    18    19    1
    32    18    20    1
    33    18    28    1
    34    19    21    1
    35    19    29    1
    36    20    30    1
    37    21    22    1
    38    21    31    1
    39    22    32    1
    40    22    33    1
    41    23    25   ar
    42    24    36    1
    43    25    26   ar
    44    27    37    1
