@<TRIPOS>MOLECULE
5311080
 83 87 0 0 0
SMALL
GASTEIGER

@<TRIPOS>ATOM
      1 O          -0.4206    0.9082    0.0803 O.2     1  UNL1       -0.2738
      2 O          -3.2121    0.1823   -2.0504 O.2     1  UNL1       -0.2739
      3 O           3.3517   -0.2763   -2.2515 O.2     1  UNL1       -0.2738
      4 O           5.2447   -2.9978    0.9134 O.2     1  UNL1       -0.2740
      5 O          -1.8530    0.7351    4.5082 O.3     1  UNL1       -0.5068
      6 N          -2.1232    2.1635   -1.5544 N.am    1  UNL1       -0.2886
      7 N           0.6625   -0.0557   -1.7409 N.am    1  UNL1       -0.3022
      8 N          -5.3893    1.9887   -2.3628 N.3     1  UNL1       -0.3197
      9 N           3.6343   -0.9940   -0.0611 N.am    1  UNL1       -0.3022
     10 N          -2.5078   -3.0971   -1.8165 N.ar    1  UNL1       -0.3604
     11 N           6.9453   -2.1773   -0.3948 N.am    1  UNL1       -0.3278
     12 C          -0.8280    1.7835   -2.1029 C.3     1  UNL1        0.1023
     13 C          -0.0544    3.0923   -2.2119 C.3     1  UNL1       -0.0243
     14 C          -0.6416    3.9460   -1.0905 C.3     1  UNL1       -0.0350
     15 C          -2.1086    3.5437   -1.0766 C.3     1  UNL1        0.0156
     16 C          -0.1931    0.8413   -1.1248 C.2     1  UNL1        0.2342
     17 C          -3.2380    1.3443   -1.6412 C.2     1  UNL1        0.2333
     18 C          -4.5351    1.9615   -1.1825 C.3     1  UNL1        0.0865
     19 C           1.4158   -1.0542   -1.0172 C.3     1  UNL1        0.1034
     20 C           1.1016   -2.4745   -1.5039 C.3     1  UNL1        0.0013
     21 C          -5.1711    1.1402   -0.0612 C.3     1  UNL1       -0.0039
     22 C           2.8957   -0.7397   -1.2084 C.2     1  UNL1        0.2343
     23 C          -0.3498   -2.8368   -1.3668 C.ar    1  UNL1       -0.0201
     24 C          -4.2846    1.0321    1.1575 C.ar    1  UNL1       -0.0452
     25 C          -0.9690   -3.4448   -0.2391 C.ar    1  UNL1        0.0029
     26 C           5.0529   -0.7380    0.0403 C.3     1  UNL1        0.1031
     27 C          -1.3214   -2.6354   -2.3201 C.ar    1  UNL1        0.0060
     28 C          -2.3225   -3.5971   -0.5472 C.ar    1  UNL1        0.0467
     29 C           5.3875    0.2253    1.1848 C.3     1  UNL1       -0.0007
     30 C          -4.3750    1.9858    2.1715 C.ar    1  UNL1       -0.0551
     31 C          -3.3773   -0.0213    1.2697 C.ar    1  UNL1       -0.0551
     32 C          -0.5064   -3.8815    1.0181 C.ar    1  UNL1       -0.0523
     33 C          -3.2403   -4.1666    0.3425 C.ar    1  UNL1       -0.0378
     34 C           5.7357   -2.0800    0.2604 C.2     1  UNL1        0.2311
     35 C           4.7127    1.5670    1.0348 C.ar    1  UNL1       -0.0451
     36 C          -1.4130   -4.4531    1.9183 C.ar    1  UNL1       -0.0611
     37 C          -3.5578    1.8860    3.2977 C.ar    1  UNL1       -0.0199
     38 C          -2.5603   -0.1212    2.3957 C.ar    1  UNL1       -0.0199
     39 C          -2.7585   -4.5925    1.5837 C.ar    1  UNL1       -0.0598
     40 C          -2.6506    0.8323    3.4098 C.ar    1  UNL1        0.1169
     41 C           5.3521    2.5958    0.3428 C.ar    1  UNL1       -0.0585
     42 C           3.4496    1.7784    1.5877 C.ar    1  UNL1       -0.0585
     43 C           4.7286    3.8357    0.2040 C.ar    1  UNL1       -0.0615
     44 C           2.8261    3.0184    1.4487 C.ar    1  UNL1       -0.0615
     45 C           3.4656    4.0470    0.7567 C.ar    1  UNL1       -0.0617
     46 H          -0.9658    1.2967   -3.0746 H       1  UNL1        0.0597
     47 H          -0.2650    3.5688   -3.1770 H       1  UNL1        0.0288
     48 H           1.0294    2.9740   -2.1164 H       1  UNL1        0.0288
     49 H          -0.5016    5.0181   -1.2543 H       1  UNL1        0.0281
     50 H          -0.1695    3.6857   -0.1359 H       1  UNL1        0.0281
     51 H          -2.6922    4.1543   -1.7739 H       1  UNL1        0.0465
     52 H          -2.5364    3.6168   -0.0729 H       1  UNL1        0.0465
     53 H          -4.4307    2.9892   -0.8343 H       1  UNL1        0.0558
     54 H           1.1646   -0.9731    0.0476 H       1  UNL1        0.0598
     55 H           0.8091    0.0088   -2.7444 H       1  UNL1        0.1495
     56 H           1.7155   -3.1992   -0.9539 H       1  UNL1        0.0337
     57 H           1.3936   -2.5789   -2.5580 H       1  UNL1        0.0337
     58 H          -5.4128    0.1259   -0.4094 H       1  UNL1        0.0333
     59 H          -6.1334    1.5821    0.2313 H       1  UNL1        0.0333
     60 H          -6.3070    2.3572   -2.1151 H       1  UNL1        0.1189
     61 H          -5.0027    2.6314   -3.0534 H       1  UNL1        0.1189
     62 H           3.1739   -1.4148    0.7411 H       1  UNL1        0.1495
     63 H           5.4003   -0.3098   -0.9079 H       1  UNL1        0.0598
     64 H          -1.2771   -2.2041   -3.3104 H       1  UNL1        0.0810
     65 H          -3.3925   -3.0729   -2.3045 H       1  UNL1        0.1653
     66 H           6.4744    0.3674    1.2504 H       1  UNL1        0.0336
     67 H           5.0982   -0.2152    2.1491 H       1  UNL1        0.0336
     68 H          -5.0762    2.8123    2.0940 H       1  UNL1        0.0621
     69 H          -3.3014   -0.7771    0.4943 H       1  UNL1        0.0621
     70 H           0.5387   -3.7781    1.2956 H       1  UNL1        0.0624
     71 H          -4.2881   -4.2744    0.0833 H       1  UNL1        0.0638
     72 H          -1.0620   -4.7906    2.8899 H       1  UNL1        0.0618
     73 H          -3.4455   -5.0382    2.2985 H       1  UNL1        0.0618
     74 H          -3.6371    2.6360    4.0802 H       1  UNL1        0.0654
     75 H          -1.8561   -0.9446    2.4773 H       1  UNL1        0.0654
     76 H           6.3350    2.4421   -0.0943 H       1  UNL1        0.0620
     77 H           2.9397    0.9863    2.1297 H       1  UNL1        0.0620
     78 H           7.4974   -3.0271   -0.3437 H       1  UNL1        0.1450
     79 H           7.3377   -1.4125   -0.9344 H       1  UNL1        0.1450
     80 H           5.2258    4.6363   -0.3358 H       1  UNL1        0.0618
     81 H           1.8416    3.1823    1.8772 H       1  UNL1        0.0618
     82 H           2.9790    5.0117    0.6470 H       1  UNL1        0.0618
     83 H          -2.0480    1.4773    5.1059 H       1  UNL1        0.2921
@<TRIPOS>BOND
     1     1    16    2
     2     2    17    2
     3     3    22    2
     4     4    34    2
     5     5    40    1
     6     5    83    1
     7     6    12    1
     8     6    15    1
     9     6    17   am
    10     7    16   am
    11     7    19    1
    12     7    55    1
    13     8    18    1
    14     8    60    1
    15     8    61    1
    16     9    22   am
    17     9    26    1
    18     9    62    1
    19    10    27   ar
    20    10    28   ar
    21    10    65    1
    22    11    34   am
    23    11    78    1
    24    11    79    1
    25    12    13    1
    26    12    16    1
    27    12    46    1
    28    13    14    1
    29    13    47    1
    30    13    48    1
    31    14    15    1
    32    14    49    1
    33    14    50    1
    34    15    51    1
    35    15    52    1
    36    17    18    1
    37    18    21    1
    38    18    53    1
    39    19    20    1
    40    19    22    1
    41    19    54    1
    42    20    23    1
    43    20    56    1
    44    20    57    1
    45    21    24    1
    46    21    58    1
    47    21    59    1
    48    23    25   ar
    49    23    27   ar
    50    24    30   ar
    51    24    31   ar
    52    25    28   ar
    53    25    32   ar
    54    26    29    1
    55    26    34    1
    56    26    63    1
    57    27    64    1
    58    28    33   ar
    59    29    35    1
    60    29    66    1
    61    29    67    1
    62    30    37   ar
    63    30    68    1
    64    31    38   ar
    65    31    69    1
    66    32    36   ar
    67    32    70    1
    68    33    39   ar
    69    33    71    1
    70    35    41   ar
    71    35    42   ar
    72    36    39   ar
    73    36    72    1
    74    37    40   ar
    75    37    74    1
    76    38    40   ar
    77    38    75    1
    78    39    73    1
    79    41    43   ar
    80    41    76    1
    81    42    44   ar
    82    42    77    1
    83    43    45   ar
    84    43    80    1
    85    44    45   ar
    86    44    81    1
    87    45    82    1
@<TRIPOS>MOLECULE
5311081
 79 82 0 0 0
SMALL
GASTEIGER

@<TRIPOS>ATOM
      1 O          -0.6493    0.5711    0.0612 O.2     1  UNL1       -0.2738
      2 O          -3.3594   -0.6263   -1.9590 O.2     1  UNL1       -0.2739
      3 O           3.2079   -0.4273   -2.2123 O.2     1  UNL1       -0.2738
      4 O           5.4007   -2.6252    1.1607 O.2     1  UNL1       -0.2740
      5 O          -2.0402    0.6564    4.5050 O.3     1  UNL1       -0.5068
      6 N          -2.4779    1.4923   -1.6578 N.am    1  UNL1       -0.2886
      7 N           0.5203   -0.4391   -1.6797 N.am    1  UNL1       -0.3022
      8 N          -5.7117    0.9128   -2.4046 N.3     1  UNL1       -0.3197
      9 N           3.5798   -0.9033    0.0303 N.am    1  UNL1       -0.3022
     10 N           6.9971   -1.7536   -0.2423 N.am    1  UNL1       -0.3278
     11 C          -1.1525    1.1980   -2.1866 C.3     1  UNL1        0.1023
     12 C          -0.5177    2.5634   -2.4231 C.3     1  UNL1       -0.0243
     13 C          -1.1853    3.4513   -1.3756 C.3     1  UNL1       -0.0350
     14 C          -2.6032    2.9046   -1.3065 C.3     1  UNL1        0.0156
     15 C          -0.4206    0.4184   -1.1359 C.2     1  UNL1        0.2342
     16 C          -3.5030    0.5593   -1.6560 C.2     1  UNL1        0.2333
     17 C          -4.8549    1.0804   -1.2380 C.3     1  UNL1        0.0865
     18 C           1.3748   -1.2856   -0.8788 C.3     1  UNL1        0.1034
     19 C          -5.3991    0.3038   -0.0390 C.3     1  UNL1       -0.0039
     20 C           1.2125   -2.7692   -1.2291 C.3     1  UNL1       -0.0007
     21 C           2.8112   -0.8373   -1.1236 C.2     1  UNL1        0.2343
     22 C          -4.5017    0.3981    1.1729 C.ar    1  UNL1       -0.0452
     23 C          -0.0158   -3.3854   -0.6052 C.ar    1  UNL1       -0.0451
     24 C           4.9634   -0.4895    0.0868 C.3     1  UNL1        0.1031
     25 C           5.1983    0.6060    1.1330 C.3     1  UNL1       -0.0007
     26 C          -4.6857    1.4258    2.0979 C.ar    1  UNL1       -0.0551
     27 C          -3.4905   -0.5428    1.3678 C.ar    1  UNL1       -0.0551
     28 C           0.0630   -3.9707    0.6586 C.ar    1  UNL1       -0.0585
     29 C          -1.2299   -3.3693   -1.2918 C.ar    1  UNL1       -0.0585
     30 C           5.7872   -1.7250    0.4190 C.2     1  UNL1        0.2311
     31 C           4.3829    1.8486    0.8704 C.ar    1  UNL1       -0.0451
     32 C          -3.8586    1.5126    3.2178 C.ar    1  UNL1       -0.0199
     33 C          -2.6635   -0.4561    2.4875 C.ar    1  UNL1       -0.0199
     34 C          -1.0722   -4.5400    1.2356 C.ar    1  UNL1       -0.0615
     35 C          -2.3651   -3.9385   -0.7147 C.ar    1  UNL1       -0.0615
     36 C          -2.8476    0.5715    3.4125 C.ar    1  UNL1        0.1169
     37 C          -2.2862   -4.5238    0.5491 C.ar    1  UNL1       -0.0617
     38 C           4.9049    2.8708    0.0775 C.ar    1  UNL1       -0.0585
     39 C           3.1071    1.9749    1.4202 C.ar    1  UNL1       -0.0585
     40 C           4.1513    4.0191   -0.1654 C.ar    1  UNL1       -0.0615
     41 C           2.3535    3.1232    1.1770 C.ar    1  UNL1       -0.0615
     42 C           2.8757    4.1454    0.3842 C.ar    1  UNL1       -0.0617
     43 H          -1.2432    0.6134   -3.1086 H       1  UNL1        0.0597
     44 H          -0.7798    2.9263   -3.4244 H       1  UNL1        0.0288
     45 H           0.5727    2.5654   -2.3314 H       1  UNL1        0.0288
     46 H          -0.6855    3.3282   -0.4077 H       1  UNL1        0.0281
     47 H          -1.1566    4.5128   -1.6370 H       1  UNL1        0.0281
     48 H          -3.0326    3.0248   -0.3081 H       1  UNL1        0.0465
     49 H          -3.2489    3.3867   -2.0485 H       1  UNL1        0.0465
     50 H          -4.8553    2.1408   -0.9851 H       1  UNL1        0.0558
     51 H           0.6557   -0.4511   -2.6868 H       1  UNL1        0.1495
     52 H           1.1346   -1.1223    0.1793 H       1  UNL1        0.0598
     53 H          -5.5367   -0.7572   -0.2912 H       1  UNL1        0.0333
     54 H          -6.4005    0.6702    0.2248 H       1  UNL1        0.0333
     55 H           2.0919   -3.3351   -0.8925 H       1  UNL1        0.0336
     56 H           1.1822   -2.9093   -2.3182 H       1  UNL1        0.0336
     57 H          -5.3957    1.5259   -3.1555 H       1  UNL1        0.1189
     58 H          -6.6613    1.2069   -2.1794 H       1  UNL1        0.1189
     59 H           3.1724   -1.2948    0.8748 H       1  UNL1        0.1495
     60 H           5.2579   -0.1168   -0.9018 H       1  UNL1        0.0598
     61 H           4.9627    0.2286    2.1378 H       1  UNL1        0.0336
     62 H           6.2641    0.8684    1.1692 H       1  UNL1        0.0336
     63 H          -5.4685    2.1661    1.9552 H       1  UNL1        0.0621
     64 H          -3.3409   -1.3544    0.6632 H       1  UNL1        0.0621
     65 H           1.0025   -3.9865    1.2047 H       1  UNL1        0.0620
     66 H          -1.3047   -2.9157   -2.2765 H       1  UNL1        0.0620
     67 H          -4.0116    2.3186    3.9305 H       1  UNL1        0.0654
     68 H          -1.8783   -1.1928    2.6338 H       1  UNL1        0.0654
     69 H          -1.0113   -4.9943    2.2202 H       1  UNL1        0.0618
     70 H          -3.3110   -3.9238   -1.2482 H       1  UNL1        0.0618
     71 H          -3.1706   -4.9653    0.9990 H       1  UNL1        0.0618
     72 H           5.8965    2.7825   -0.3583 H       1  UNL1        0.0620
     73 H           2.6878    1.1869    2.0401 H       1  UNL1        0.0620
     74 H           7.6374   -2.5314   -0.1215 H       1  UNL1        0.1450
     75 H           7.3027   -1.0048   -0.8554 H       1  UNL1        0.1450
     76 H           4.5571    4.8144   -0.7838 H       1  UNL1        0.0618
     77 H           1.3593    3.2206    1.6032 H       1  UNL1        0.0618
     78 H           2.2878    5.0385    0.1936 H       1  UNL1        0.0618
     79 H          -2.3082    1.4261    5.0357 H       1  UNL1        0.2921
@<TRIPOS>BOND
     1     1    15    2
     2     2    16    2
     3     3    21    2
     4     4    30    2
     5     5    36    1
     6     5    79    1
     7     6    11    1
     8     6    14    1
     9     6    16   am
    10     7    15   am
    11     7    18    1
    12     7    51    1
    13     8    17    1
    14     8    57    1
    15     8    58    1
    16     9    21   am
    17     9    24    1
    18     9    59    1
    19    10    30   am
    20    10    74    1
    21    10    75    1
    22    11    12    1
    23    11    15    1
    24    11    43    1
    25    12    13    1
    26    12    44    1
    27    12    45    1
    28    13    14    1
    29    13    46    1
    30    13    47    1
    31    14    48    1
    32    14    49    1
    33    16    17    1
    34    17    19    1
    35    17    50    1
    36    18    20    1
    37    18    21    1
    38    18    52    1
    39    19    22    1
    40    19    53    1
    41    19    54    1
    42    20    23    1
    43    20    55    1
    44    20    56    1
    45    22    26   ar
    46    22    27   ar
    47    23    28   ar
    48    23    29   ar
    49    24    25    1
    50    24    30    1
    51    24    60    1
    52    25    31    1
    53    25    61    1
    54    25    62    1
    55    26    32   ar
    56    26    63    1
    57    27    33   ar
    58    27    64    1
    59    28    34   ar
    60    28    65    1
    61    29    35   ar
    62    29    66    1
    63    31    38   ar
    64    31    39   ar
    65    32    36   ar
    66    32    67    1
    67    33    36   ar
    68    33    68    1
    69    34    37   ar
    70    34    69    1
    71    35    37   ar
    72    35    70    1
    73    37    71    1
    74    38    40   ar
    75    38    72    1
    76    39    41   ar
    77    39    73    1
    78    40    42   ar
    79    40    76    1
    80    41    42   ar
    81    41    77    1
    82    42    78    1
@<TRIPOS>MOLECULE
44350751
 79 82 0 0 0
SMALL
GASTEIGER

@<TRIPOS>ATOM
      1 O          -0.8088   -1.2738   -0.0786 O.2     1  UNL1       -0.2738
      2 O          -1.8030    1.3850    2.1124 O.2     1  UNL1       -0.2739
      3 O           2.8801    0.5163    1.9785 O.2     1  UNL1       -0.2738
      4 O           5.7302    0.5677   -1.6118 O.2     1  UNL1       -0.2740
      5 O          -4.1639   -0.6003   -4.5364 O.3     1  UNL1       -0.5068
      6 N          -2.5866   -0.7775    1.8555 N.am    1  UNL1       -0.2886
      7 N           0.9171   -1.3293    1.4827 N.am    1  UNL1       -0.3022
      8 N          -4.5172    1.7919    2.8656 N.3     1  UNL1       -0.3197
      9 N           3.3134    0.6031   -0.3015 N.am    1  UNL1       -0.3022
     10 N           6.4894    2.1960   -0.1805 N.am    1  UNL1       -0.3278
     11 C          -1.3518   -1.4487    2.2395 C.3     1  UNL1        0.1023
     12 C          -1.7606   -2.8946    2.4956 C.3     1  UNL1       -0.0243
     13 C          -2.9578   -3.0943    1.5695 C.3     1  UNL1       -0.0350
     14 C          -3.6536   -1.7421    1.6013 C.3     1  UNL1        0.0156
     15 C          -0.4077   -1.3341    1.0807 C.2     1  UNL1        0.2342
     16 C          -2.7281    0.6008    1.8945 C.2     1  UNL1        0.2333
     17 C          -4.1205    1.1184    1.6357 C.3     1  UNL1        0.0865
     18 C           2.0240   -1.2503    0.5569 C.3     1  UNL1        0.1034
     19 C          -4.1400    2.0823    0.4494 C.3     1  UNL1       -0.0039
     20 C           2.9768   -2.4439    0.6905 C.3     1  UNL1       -0.0007
     21 C           2.7621    0.0517    0.8467 C.2     1  UNL1        0.2343
     22 C          -4.1462    1.3685   -0.8822 C.ar    1  UNL1       -0.0452
     23 C           2.4614   -3.6823   -0.0013 C.ar    1  UNL1       -0.0451
     24 C           4.1061    1.8115   -0.2998 C.3     1  UNL1        0.1031
     25 C           3.5145    2.8941   -1.2096 C.3     1  UNL1       -0.0007
     26 C          -2.9412    1.0473   -1.5073 C.ar    1  UNL1       -0.0551
     27 C          -5.3570    1.0286   -1.4854 C.ar    1  UNL1       -0.0551
     28 C           1.6622   -4.5885    0.6955 C.ar    1  UNL1       -0.0585
     29 C           2.7841   -3.9205   -1.3372 C.ar    1  UNL1       -0.0585
     30 C           5.5033    1.4314   -0.7677 C.2     1  UNL1        0.2311
     31 C           2.3625    3.6297   -0.5692 C.ar    1  UNL1       -0.0451
     32 C          -2.9472    0.3862   -2.7355 C.ar    1  UNL1       -0.0199
     33 C          -5.3631    0.3675   -2.7135 C.ar    1  UNL1       -0.0199
     34 C           1.1857   -5.7333    0.0565 C.ar    1  UNL1       -0.0615
     35 C           2.3076   -5.0651   -1.9763 C.ar    1  UNL1       -0.0615
     36 C          -4.1581    0.0463   -3.3386 C.ar    1  UNL1        0.1169
     37 C           1.5084   -5.9715   -1.2794 C.ar    1  UNL1       -0.0617
     38 C           1.0588    3.1614   -0.7331 C.ar    1  UNL1       -0.0585
     39 C           2.6014    4.7775    0.1865 C.ar    1  UNL1       -0.0585
     40 C          -0.0060    3.8409   -0.1414 C.ar    1  UNL1       -0.0615
     41 C           1.5366    5.4570    0.7783 C.ar    1  UNL1       -0.0615
     42 C           0.2329    4.9887    0.6143 C.ar    1  UNL1       -0.0617
     43 H          -0.9317   -0.9692    3.1303 H       1  UNL1        0.0597
     44 H          -2.0870   -3.0084    3.5366 H       1  UNL1        0.0288
     45 H          -0.9657   -3.6208    2.3052 H       1  UNL1        0.0288
     46 H          -2.6110   -3.3177    0.5536 H       1  UNL1        0.0281
     47 H          -3.6116   -3.9103    1.8896 H       1  UNL1        0.0281
     48 H          -4.1607   -1.5272    0.6565 H       1  UNL1        0.0465
     49 H          -4.3703   -1.6863    2.4278 H       1  UNL1        0.0465
     50 H          -4.8563    0.3328    1.4628 H       1  UNL1        0.0558
     51 H           1.1344   -1.3609    2.4748 H       1  UNL1        0.1495
     52 H           1.6244   -1.2002   -0.4638 H       1  UNL1        0.0598
     53 H          -3.2960    2.7833    0.4833 H       1  UNL1        0.0333
     54 H          -5.0374    2.7157    0.4932 H       1  UNL1        0.0333
     55 H           3.1722   -2.6672    1.7482 H       1  UNL1        0.0336
     56 H           3.9587   -2.1949    0.2655 H       1  UNL1        0.0336
     57 H          -4.5955    1.1120    3.6215 H       1  UNL1        0.1189
     58 H          -5.4456    2.1973    2.7535 H       1  UNL1        0.1189
     59 H           3.2009    0.1167   -1.1865 H       1  UNL1        0.1495
     60 H           4.1796    2.1847    0.7294 H       1  UNL1        0.0598
     61 H           3.1889    2.4614   -2.1654 H       1  UNL1        0.0336
     62 H           4.2861    3.6287   -1.4774 H       1  UNL1        0.0336
     63 H          -1.9909    1.3029   -1.0478 H       1  UNL1        0.0621
     64 H          -6.3023    1.2704   -1.0069 H       1  UNL1        0.0621
     65 H           1.4067   -4.4158    1.7374 H       1  UNL1        0.0620
     66 H           3.4037   -3.2204   -1.8913 H       1  UNL1        0.0620
     67 H          -2.0051    0.1373   -3.2163 H       1  UNL1        0.0654
     68 H          -6.3131    0.1072   -3.1724 H       1  UNL1        0.0654
     69 H           0.5635   -6.4388    0.5993 H       1  UNL1        0.0618
     70 H           2.5581   -5.2504   -3.0167 H       1  UNL1        0.0618
     71 H           1.1372   -6.8626   -1.7771 H       1  UNL1        0.0618
     72 H           0.8588    2.2682   -1.3191 H       1  UNL1        0.0620
     73 H           3.6128    5.1505    0.3236 H       1  UNL1        0.0620
     74 H           6.2856    2.9231    0.4978 H       1  UNL1        0.1450
     75 H           7.4664    2.0546   -0.4149 H       1  UNL1        0.1450
     76 H          -1.0209    3.4795   -0.2701 H       1  UNL1        0.0618
     77 H           1.7225    6.3503    1.3673 H       1  UNL1        0.0618
     78 H          -0.5963    5.5176    1.0749 H       1  UNL1        0.0618
     79 H          -5.0854   -0.7570   -4.8052 H       1  UNL1        0.2921
@<TRIPOS>BOND
     1     1    15    2
     2     2    16    2
     3     3    21    2
     4     4    30    2
     5     5    36    1
     6     5    79    1
     7     6    11    1
     8     6    14    1
     9     6    16   am
    10     7    15   am
    11     7    18    1
    12     7    51    1
    13     8    17    1
    14     8    57    1
    15     8    58    1
    16     9    21   am
    17     9    24    1
    18     9    59    1
    19    10    30   am
    20    10    74    1
    21    10    75    1
    22    11    12    1
    23    11    15    1
    24    11    43    1
    25    12    13    1
    26    12    44    1
    27    12    45    1
    28    13    14    1
    29    13    46    1
    30    13    47    1
    31    14    48    1
    32    14    49    1
    33    16    17    1
    34    17    19    1
    35    17    50    1
    36    18    20    1
    37    18    21    1
    38    18    52    1
    39    19    22    1
    40    19    53    1
    41    19    54    1
    42    20    23    1
    43    20    55    1
    44    20    56    1
    45    22    26   ar
    46    22    27   ar
    47    23    28   ar
    48    23    29   ar
    49    24    25    1
    50    24    30    1
    51    24    60    1
    52    25    31    1
    53    25    61    1
    54    25    62    1
    55    26    32   ar
    56    26    63    1
    57    27    33   ar
    58    27    64    1
    59    28    34   ar
    60    28    65    1
    61    29    35   ar
    62    29    66    1
    63    31    38   ar
    64    31    39   ar
    65    32    36   ar
    66    32    67    1
    67    33    36   ar
    68    33    68    1
    69    34    37   ar
    70    34    69    1
    71    35    37   ar
    72    35    70    1
    73    37    71    1
    74    38    40   ar
    75    38    72    1
    76    39    41   ar
    77    39    73    1
    78    40    42   ar
    79    40    76    1
    80    41    42   ar
    81    41    77    1
    82    42    78    1
