@<TRIPOS>MOLECULE
644209
 63 68 0 0 0
SMALL
GASTEIGER

@<TRIPOS>ATOM
      1 O          -0.5168   -2.1118    0.8541 O.3     1  UNL1       -0.4807
      2 O           2.2698   -1.7204    0.0200 O.3     1  UNL1       -0.3685
      3 O           2.9785    1.0347   -1.9968 O.3     1  UNL1       -0.3885
      4 O          -2.5792   -4.0509    0.2150 O.3     1  UNL1       -0.5033
      5 N          -1.7169    3.0602    0.6151 N.3     1  UNL1       -0.3012
      6 C          -0.8200    0.3176    0.7254 C.3     1  UNL1        0.0511
      7 C          -0.4134    1.2587   -0.4453 C.3     1  UNL1        0.0184
      8 C           0.1861   -0.8320    0.9419 C.3     1  UNL1        0.1435
      9 C           1.3311   -0.6689   -0.1053 C.3     1  UNL1        0.1301
     10 C          -1.6154    2.2422   -0.6168 C.3     1  UNL1        0.0241
     11 C           0.9713    1.8810   -0.1010 C.3     1  UNL1       -0.0330
     12 C           2.0022    0.7273    0.1764 C.3     1  UNL1        0.0247
     13 C          -1.1288    1.0898    2.0215 C.3     1  UNL1       -0.0260
     14 C          -1.9950   -0.4599    0.2644 C.ar    1  UNL1        0.0118
     15 C          -0.1124    0.4138   -1.6963 C.2     1  UNL1       -0.0765
     16 C          -2.9588    1.4794   -0.9744 C.3     1  UNL1       -0.0108
     17 C           0.7528   -0.5976   -1.5050 C.2     1  UNL1       -0.0520
     18 C          -2.0761    2.2783    1.8025 C.3     1  UNL1       -0.0001
     19 C           3.2994    0.9539   -0.6071 C.3     1  UNL1        0.0692
     20 C          -3.0492    0.0537   -0.4725 C.ar    1  UNL1       -0.0383
     21 C          -1.7876   -1.8107    0.4305 C.ar    1  UNL1        0.1664
     22 C           4.3137   -0.1895   -0.4071 C.3     1  UNL1       -0.0241
     23 C          -2.5794    4.2276    0.4631 C.3     1  UNL1       -0.0124
     24 C          -4.0448   -0.8431   -0.8589 C.ar    1  UNL1       -0.0546
     25 C           3.9336    2.2845   -0.1911 C.3     1  UNL1       -0.0357
     26 C          -2.7522   -2.7168    0.0475 C.ar    1  UNL1        0.1588
     27 C          -3.9069   -2.2173   -0.5731 C.ar    1  UNL1       -0.0162
     28 C           1.6832   -2.9876   -0.2558 C.3     1  UNL1        0.0377
     29 C           4.6968   -0.4518    1.0545 C.3     1  UNL1       -0.0533
     30 C           5.6343   -1.6444    1.1746 C.3     1  UNL1       -0.0652
     31 H           0.6214   -0.8108    1.9498 H       1  UNL1        0.0775
     32 H          -1.3833    2.9208   -1.4491 H       1  UNL1        0.0474
     33 H           0.9246    2.5319    0.7793 H       1  UNL1        0.0279
     34 H           1.2754    2.5304   -0.9310 H       1  UNL1        0.0279
     35 H           2.2425    0.7704    1.2477 H       1  UNL1        0.0361
     36 H          -0.1932    1.4657    2.4548 H       1  UNL1        0.0288
     37 H          -1.5657    0.4244    2.7778 H       1  UNL1        0.0288
     38 H          -0.5527    0.6303   -2.6612 H       1  UNL1        0.0576
     39 H          -3.0133    1.4357   -2.0709 H       1  UNL1        0.0329
     40 H          -3.8436    2.0348   -0.6479 H       1  UNL1        0.0329
     41 H           1.0677   -1.2353   -2.3211 H       1  UNL1        0.0599
     42 H          -3.1118    1.9217    1.7441 H       1  UNL1        0.0427
     43 H          -2.0232    2.9160    2.6939 H       1  UNL1        0.0427
     44 H           5.2379    0.1103   -0.9271 H       1  UNL1        0.0293
     45 H           4.0619   -1.1007   -0.9574 H       1  UNL1        0.0293
     46 H          -3.6369    3.9684    0.3545 H       1  UNL1        0.0391
     47 H          -2.2781    4.8233   -0.4054 H       1  UNL1        0.0391
     48 H          -2.4839    4.8837    1.3357 H       1  UNL1        0.0391
     49 H          -4.9032   -0.5009   -1.4305 H       1  UNL1        0.0622
     50 H           3.3416    3.1452   -0.5192 H       1  UNL1        0.0257
     51 H           4.9118    2.4127   -0.6701 H       1  UNL1        0.0257
     52 H           4.0728    2.3603    0.8918 H       1  UNL1        0.0257
     53 H           3.0637    0.1535   -2.3964 H       1  UNL1        0.2102
     54 H          -4.6843   -2.9040   -0.9006 H       1  UNL1        0.0655
     55 H           2.4818   -3.6177   -0.6626 H       1  UNL1        0.0524
     56 H           0.8742   -3.0026   -0.9901 H       1  UNL1        0.0524
     57 H           1.3815   -3.4677    0.6798 H       1  UNL1        0.0524
     58 H           3.8230   -0.6512    1.6803 H       1  UNL1        0.0264
     59 H           5.1990    0.4256    1.4761 H       1  UNL1        0.0264
     60 H          -1.7170   -4.1962    0.6421 H       1  UNL1        0.2923
     61 H           6.5534   -1.4801    0.6031 H       1  UNL1        0.0230
     62 H           5.1569   -2.5574    0.8045 H       1  UNL1        0.0230
     63 H           5.9100   -1.8062    2.2214 H       1  UNL1        0.0230
@<TRIPOS>BOND
     1     1     8    1
     2     1    21    1
     3     2     9    1
     4     2    28    1
     5     3    19    1
     6     3    53    1
     7     4    26    1
     8     4    60    1
     9     5    10    1
    10     5    18    1
    11     5    23    1
    12     6     7    1
    13     6     8    1
    14     6    13    1
    15     6    14    1
    16     7    10    1
    17     7    11    1
    18     7    15    1
    19     8     9    1
    20     8    31    1
    21     9    12    1
    22     9    17    1
    23    10    16    1
    24    10    32    1
    25    11    12    1
    26    11    33    1
    27    11    34    1
    28    12    19    1
    29    12    35    1
    30    13    18    1
    31    13    36    1
    32    13    37    1
    33    14    20   ar
    34    14    21   ar
    35    15    17    2
    36    15    38    1
    37    16    20    1
    38    16    39    1
    39    16    40    1
    40    17    41    1
    41    18    42    1
    42    18    43    1
    43    19    22    1
    44    19    25    1
    45    20    24   ar
    46    21    26   ar
    47    22    29    1
    48    22    44    1
    49    22    45    1
    50    23    46    1
    51    23    47    1
    52    23    48    1
    53    24    27   ar
    54    24    49    1
    55    25    50    1
    56    25    51    1
    57    25    52    1
    58    26    27   ar
    59    27    54    1
    60    28    55    1
    61    28    56    1
    62    28    57    1
    63    29    30    1
    64    29    58    1
    65    29    59    1
    66    30    61    1
    67    30    62    1
    68    30    63    1
@<TRIPOS>MOLECULE
443407
 63 68 0 0 0
SMALL
GASTEIGER

@<TRIPOS>ATOM
      1 O          -1.3578   -1.8942    1.1038 O.3     1  UNL1       -0.4807
      2 O           1.3407   -2.7155    0.2928 O.3     1  UNL1       -0.3685
      3 O           2.9863   -0.8094   -2.0079 O.3     1  UNL1       -0.3885
      4 O          -4.0264   -2.9401    0.6488 O.3     1  UNL1       -0.5033
      5 N          -0.4613    3.2722    0.2364 N.3     1  UNL1       -0.3012
      6 C          -0.6971    0.4295    0.6858 C.3     1  UNL1        0.0511
      7 C           0.0140    0.9959   -0.5771 C.3     1  UNL1        0.0184
      8 C          -0.2112   -0.9870    1.0576 C.3     1  UNL1        0.1435
      9 C           0.8811   -1.4043    0.0246 C.3     1  UNL1        0.1301
     10 C          -0.7158    2.3419   -0.8891 C.3     1  UNL1        0.0241
     11 C           1.5396    1.0670   -0.2766 C.3     1  UNL1       -0.0330
     12 C           2.0483   -0.3558    0.1566 C.3     1  UNL1        0.0247
     13 C          -0.6498    1.4060    1.8758 C.3     1  UNL1       -0.0260
     14 C          -2.0928    0.1215    0.2923 C.ar    1  UNL1        0.0118
     15 C          -0.0677   -0.0387   -1.7140 C.2     1  UNL1       -0.0765
     16 C          -2.2583    2.1248   -1.1855 C.3     1  UNL1       -0.0108
     17 C           0.3414   -1.2771   -1.3865 C.2     1  UNL1       -0.0520
     18 C          -1.0665    2.8348    1.4985 C.3     1  UNL1       -0.0001
     19 C           3.3120   -0.7435   -0.6185 C.3     1  UNL1        0.0692
     20 C          -2.8827    0.9148   -0.5231 C.ar    1  UNL1       -0.0383
     21 C          -2.4220   -1.1745    0.6194 C.ar    1  UNL1        0.1664
     22 C           4.4514    0.2782   -0.4345 C.3     1  UNL1       -0.0241
     23 C          -0.8063    4.6566   -0.0701 C.3     1  UNL1       -0.0124
     24 C          -4.1577    0.4368   -0.8246 C.ar    1  UNL1       -0.0546
     25 C           3.7872   -2.1316   -0.1789 C.3     1  UNL1       -0.0357
     26 C          -3.6719   -1.6727    0.3230 C.ar    1  UNL1        0.1588
     27 C          -4.5570   -0.8398   -0.3775 C.ar    1  UNL1       -0.0162
     28 C           0.3014   -3.6781    0.1534 C.3     1  UNL1        0.0377
     29 C           4.9618    0.4097    1.0055 C.3     1  UNL1       -0.0533
     30 C           6.1371    1.3727    1.0897 C.3     1  UNL1       -0.0652
     31 H           0.2222   -1.0196    2.0659 H       1  UNL1        0.0775
     32 H          -0.2590    2.7754   -1.7894 H       1  UNL1        0.0474
     33 H           1.7684    1.7780    0.5253 H       1  UNL1        0.0279
     34 H           2.0477    1.4586   -1.1643 H       1  UNL1        0.0279
     35 H           2.3085   -0.3109    1.2230 H       1  UNL1        0.0361
     36 H           0.3686    1.4364    2.2837 H       1  UNL1        0.0288
     37 H          -1.2921    1.0551    2.6943 H       1  UNL1        0.0288
     38 H          -0.4111    0.2187   -2.7078 H       1  UNL1        0.0576
     39 H          -2.3525    1.9786   -2.2705 H       1  UNL1        0.0329
     40 H          -2.8497    3.0140   -0.9461 H       1  UNL1        0.0329
     41 H           0.3676   -2.0763   -2.1164 H       1  UNL1        0.0599
     42 H          -2.1605    2.9043    1.4587 H       1  UNL1        0.0427
     43 H          -0.7480    3.5008    2.3104 H       1  UNL1        0.0427
     44 H           4.1632    1.2670   -0.8097 H       1  UNL1        0.0293
     45 H           5.2889   -0.0163   -1.0833 H       1  UNL1        0.0293
     46 H          -1.8839    4.8178   -0.1716 H       1  UNL1        0.0391
     47 H          -0.3189    4.9833   -0.9951 H       1  UNL1        0.0391
     48 H          -0.4422    5.3207    0.7220 H       1  UNL1        0.0391
     49 H          -4.8296    1.0166   -1.4514 H       1  UNL1        0.0622
     50 H           3.7067   -2.2968    0.9004 H       1  UNL1        0.0257
     51 H           4.8495   -2.2561   -0.4297 H       1  UNL1        0.0257
     52 H           3.3093   -2.9410   -0.7403 H       1  UNL1        0.0257
     53 H           3.0074    0.0858   -2.3840 H       1  UNL1        0.2102
     54 H          -5.5479   -1.2036   -0.6401 H       1  UNL1        0.0655
     55 H           0.7820   -4.6117   -0.1595 H       1  UNL1        0.0524
     56 H          -0.4677   -3.4626   -0.5922 H       1  UNL1        0.0524
     57 H          -0.1401   -3.8912    1.1315 H       1  UNL1        0.0524
     58 H           5.2835   -0.5609    1.3962 H       1  UNL1        0.0264
     59 H           4.1678    0.7817    1.6607 H       1  UNL1        0.0264
     60 H          -3.2779   -3.3582    1.1092 H       1  UNL1        0.2923
     61 H           5.8514    2.3712    0.7437 H       1  UNL1        0.0230
     62 H           6.9753    1.0232    0.4785 H       1  UNL1        0.0230
     63 H           6.4837    1.4581    2.1243 H       1  UNL1        0.0230
@<TRIPOS>BOND
     1     1     8    1
     2     1    21    1
     3     2     9    1
     4     2    28    1
     5     3    19    1
     6     3    53    1
     7     4    26    1
     8     4    60    1
     9     5    10    1
    10     5    18    1
    11     5    23    1
    12     6     7    1
    13     6     8    1
    14     6    13    1
    15     6    14    1
    16     7    10    1
    17     7    11    1
    18     7    15    1
    19     8     9    1
    20     8    31    1
    21     9    12    1
    22     9    17    1
    23    10    16    1
    24    10    32    1
    25    11    12    1
    26    11    33    1
    27    11    34    1
    28    12    19    1
    29    12    35    1
    30    13    18    1
    31    13    36    1
    32    13    37    1
    33    14    20   ar
    34    14    21   ar
    35    15    17    2
    36    15    38    1
    37    16    20    1
    38    16    39    1
    39    16    40    1
    40    17    41    1
    41    18    42    1
    42    18    43    1
    43    19    22    1
    44    19    25    1
    45    20    24   ar
    46    21    26   ar
    47    22    29    1
    48    22    44    1
    49    22    45    1
    50    23    46    1
    51    23    47    1
    52    23    48    1
    53    24    27   ar
    54    24    49    1
    55    25    50    1
    56    25    51    1
    57    25    52    1
    58    26    27   ar
    59    27    54    1
    60    28    55    1
    61    28    56    1
    62    28    57    1
    63    29    30    1
    64    29    58    1
    65    29    59    1
    66    30    61    1
    67    30    62    1
    68    30    63    1
@<TRIPOS>MOLECULE
26721
 63 68 0 0 0
SMALL
GASTEIGER

@<TRIPOS>ATOM
      1 O          -1.3578   -1.8942    1.1038 O.3     1  UNL1       -0.4807
      2 O           1.3407   -2.7155    0.2928 O.3     1  UNL1       -0.3685
      3 O           2.9863   -0.8094   -2.0079 O.3     1  UNL1       -0.3885
      4 O          -4.0264   -2.9401    0.6488 O.3     1  UNL1       -0.5033
      5 N          -0.4613    3.2722    0.2364 N.3     1  UNL1       -0.3012
      6 C          -0.6971    0.4295    0.6858 C.3     1  UNL1        0.0511
      7 C           0.0140    0.9959   -0.5771 C.3     1  UNL1        0.0184
      8 C          -0.2112   -0.9870    1.0576 C.3     1  UNL1        0.1435
      9 C           0.8811   -1.4043    0.0246 C.3     1  UNL1        0.1301
     10 C          -0.7158    2.3419   -0.8891 C.3     1  UNL1        0.0241
     11 C           1.5396    1.0670   -0.2766 C.3     1  UNL1       -0.0330
     12 C           2.0483   -0.3558    0.1566 C.3     1  UNL1        0.0247
     13 C          -0.6498    1.4060    1.8758 C.3     1  UNL1       -0.0260
     14 C          -2.0928    0.1215    0.2923 C.ar    1  UNL1        0.0118
     15 C          -0.0677   -0.0387   -1.7140 C.2     1  UNL1       -0.0765
     16 C          -2.2583    2.1248   -1.1855 C.3     1  UNL1       -0.0108
     17 C           0.3414   -1.2771   -1.3865 C.2     1  UNL1       -0.0520
     18 C          -1.0665    2.8348    1.4985 C.3     1  UNL1       -0.0001
     19 C           3.3120   -0.7435   -0.6185 C.3     1  UNL1        0.0692
     20 C          -2.8827    0.9148   -0.5231 C.ar    1  UNL1       -0.0383
     21 C          -2.4220   -1.1745    0.6194 C.ar    1  UNL1        0.1664
     22 C           4.4514    0.2782   -0.4345 C.3     1  UNL1       -0.0241
     23 C          -0.8063    4.6566   -0.0701 C.3     1  UNL1       -0.0124
     24 C          -4.1577    0.4368   -0.8246 C.ar    1  UNL1       -0.0546
     25 C           3.7872   -2.1316   -0.1789 C.3     1  UNL1       -0.0357
     26 C          -3.6719   -1.6727    0.3230 C.ar    1  UNL1        0.1588
     27 C          -4.5570   -0.8398   -0.3775 C.ar    1  UNL1       -0.0162
     28 C           0.3014   -3.6781    0.1534 C.3     1  UNL1        0.0377
     29 C           4.9618    0.4097    1.0055 C.3     1  UNL1       -0.0533
     30 C           6.1371    1.3727    1.0897 C.3     1  UNL1       -0.0652
     31 H           0.2222   -1.0196    2.0659 H       1  UNL1        0.0775
     32 H          -0.2590    2.7754   -1.7894 H       1  UNL1        0.0474
     33 H           1.7684    1.7780    0.5253 H       1  UNL1        0.0279
     34 H           2.0477    1.4586   -1.1643 H       1  UNL1        0.0279
     35 H           2.3085   -0.3109    1.2230 H       1  UNL1        0.0361
     36 H           0.3686    1.4364    2.2837 H       1  UNL1        0.0288
     37 H          -1.2921    1.0551    2.6943 H       1  UNL1        0.0288
     38 H          -0.4111    0.2187   -2.7078 H       1  UNL1        0.0576
     39 H          -2.3525    1.9786   -2.2705 H       1  UNL1        0.0329
     40 H          -2.8497    3.0140   -0.9461 H       1  UNL1        0.0329
     41 H           0.3676   -2.0763   -2.1164 H       1  UNL1        0.0599
     42 H          -2.1605    2.9043    1.4587 H       1  UNL1        0.0427
     43 H          -0.7480    3.5008    2.3104 H       1  UNL1        0.0427
     44 H           4.1632    1.2670   -0.8097 H       1  UNL1        0.0293
     45 H           5.2889   -0.0163   -1.0833 H       1  UNL1        0.0293
     46 H          -1.8839    4.8178   -0.1716 H       1  UNL1        0.0391
     47 H          -0.3189    4.9833   -0.9951 H       1  UNL1        0.0391
     48 H          -0.4422    5.3207    0.7220 H       1  UNL1        0.0391
     49 H          -4.8296    1.0166   -1.4514 H       1  UNL1        0.0622
     50 H           3.7067   -2.2968    0.9004 H       1  UNL1        0.0257
     51 H           4.8495   -2.2561   -0.4297 H       1  UNL1        0.0257
     52 H           3.3093   -2.9410   -0.7403 H       1  UNL1        0.0257
     53 H           3.0074    0.0858   -2.3840 H       1  UNL1        0.2102
     54 H          -5.5479   -1.2036   -0.6401 H       1  UNL1        0.0655
     55 H           0.7820   -4.6117   -0.1595 H       1  UNL1        0.0524
     56 H          -0.4677   -3.4626   -0.5922 H       1  UNL1        0.0524
     57 H          -0.1401   -3.8912    1.1315 H       1  UNL1        0.0524
     58 H           5.2835   -0.5609    1.3962 H       1  UNL1        0.0264
     59 H           4.1678    0.7817    1.6607 H       1  UNL1        0.0264
     60 H          -3.2779   -3.3582    1.1092 H       1  UNL1        0.2923
     61 H           5.8514    2.3712    0.7437 H       1  UNL1        0.0230
     62 H           6.9753    1.0232    0.4785 H       1  UNL1        0.0230
     63 H           6.4837    1.4581    2.1243 H       1  UNL1        0.0230
@<TRIPOS>BOND
     1     1     8    1
     2     1    21    1
     3     2     9    1
     4     2    28    1
     5     3    19    1
     6     3    53    1
     7     4    26    1
     8     4    60    1
     9     5    10    1
    10     5    18    1
    11     5    23    1
    12     6     7    1
    13     6     8    1
    14     6    13    1
    15     6    14    1
    16     7    10    1
    17     7    11    1
    18     7    15    1
    19     8     9    1
    20     8    31    1
    21     9    12    1
    22     9    17    1
    23    10    16    1
    24    10    32    1
    25    11    12    1
    26    11    33    1
    27    11    34    1
    28    12    19    1
    29    12    35    1
    30    13    18    1
    31    13    36    1
    32    13    37    1
    33    14    20   ar
    34    14    21   ar
    35    15    17    2
    36    15    38    1
    37    16    20    1
    38    16    39    1
    39    16    40    1
    40    17    41    1
    41    18    42    1
    42    18    43    1
    43    19    22    1
    44    19    25    1
    45    20    24   ar
    46    21    26   ar
    47    22    29    1
    48    22    44    1
    49    22    45    1
    50    23    46    1
    51    23    47    1
    52    23    48    1
    53    24    27   ar
    54    24    49    1
    55    25    50    1
    56    25    51    1
    57    25    52    1
    58    26    27   ar
    59    27    54    1
    60    28    55    1
    61    28    56    1
    62    28    57    1
    63    29    30    1
    64    29    58    1
    65    29    59    1
    66    30    61    1
    67    30    62    1
    68    30    63    1
@<TRIPOS>MOLECULE
20055090
 68 73 0 0 0
SMALL
GASTEIGER

@<TRIPOS>ATOM
      1 O          -0.9978   -1.3662    1.1318 O.3     1  UNL1       -0.4807
      2 O           1.7718   -1.9968    0.3931 O.3     1  UNL1       -0.3685
      3 O           3.3479    0.0796   -1.8345 O.3     1  UNL1       -0.3885
      4 O          -3.5767   -2.5790    0.5838 O.3     1  UNL1       -0.4223
      5 O          -2.5808   -3.2252   -1.4336 O.2     1  UNL1       -0.2507
      6 N          -0.4200    3.8595    0.3533 N.3     1  UNL1       -0.3012
      7 C          -0.4803    1.0016    0.7617 C.3     1  UNL1        0.0511
      8 C           0.2285    1.6310   -0.4724 C.3     1  UNL1        0.0184
      9 C           0.0871   -0.3850    1.1311 C.3     1  UNL1        0.1435
     10 C           1.2345   -0.7151    0.1268 C.3     1  UNL1        0.1301
     11 C          -0.5792    2.9302   -0.7903 C.3     1  UNL1        0.0241
     12 C           1.7366    1.7981   -0.1250 C.3     1  UNL1       -0.0330
     13 C           2.3254    0.4060    0.3065 C.3     1  UNL1        0.0247
     14 C          -0.5328    1.9624    1.9641 C.3     1  UNL1       -0.0260
     15 C          -1.8404    0.6079    0.3224 C.ar    1  UNL1        0.0119
     16 C           0.2490    0.6091   -1.6234 C.2     1  UNL1       -0.0765
     17 C          -2.0946    2.6162   -1.1358 C.3     1  UNL1       -0.0108
     18 C           0.7294   -0.6041   -1.2984 C.2     1  UNL1       -0.0520
     19 C          -1.0319    3.3658    1.5913 C.3     1  UNL1       -0.0001
     20 C           3.6342    0.1130   -0.4345 C.3     1  UNL1        0.0692
     21 C          -2.6568    1.3587   -0.5070 C.ar    1  UNL1       -0.0383
     22 C          -2.0926   -0.7114    0.6240 C.ar    1  UNL1        0.1673
     23 C           4.1676   -1.2723   -0.0165 C.3     1  UNL1       -0.0241
     24 C          -0.8468    5.2224    0.0531 C.3     1  UNL1       -0.0124
     25 C          -3.8879    0.8020   -0.8526 C.ar    1  UNL1       -0.0545
     26 C           4.6442    1.2325   -0.1730 C.3     1  UNL1       -0.0357
     27 C          -3.2976   -1.2866    0.2840 C.ar    1  UNL1        0.1733
     28 C          -4.2148   -0.5042   -0.4330 C.ar    1  UNL1       -0.0153
     29 C           1.8226   -2.2683    1.7896 C.3     1  UNL1        0.0377
     30 C           5.6756   -1.4609   -0.2211 C.3     1  UNL1       -0.0533
     31 C           6.1370   -2.8185    0.2886 C.3     1  UNL1       -0.0652
     32 C          -3.1536   -3.5035   -0.3883 C.2     1  UNL1        0.3093
     33 C          -3.5069   -4.8987    0.0342 C.3     1  UNL1        0.0336
     34 H           0.4460   -0.3423    2.1660 H       1  UNL1        0.0775
     35 H          -0.1259    3.4052   -1.6711 H       1  UNL1        0.0474
     36 H           1.8985    2.5190    0.6840 H       1  UNL1        0.0279
     37 H           2.2390    2.2171   -1.0054 H       1  UNL1        0.0279
     38 H           2.5709    0.4827    1.3754 H       1  UNL1        0.0361
     39 H          -1.1743    1.5594    2.7590 H       1  UNL1        0.0288
     40 H           0.4692    2.0558    2.4021 H       1  UNL1        0.0288
     41 H          -0.1054    0.8486   -2.6177 H       1  UNL1        0.0576
     42 H          -2.7503    3.4611   -0.9037 H       1  UNL1        0.0329
     43 H          -2.1471    2.4793   -2.2247 H       1  UNL1        0.0329
     44 H           0.7922   -1.4205   -2.0058 H       1  UNL1        0.0599
     45 H          -0.7823    4.0400    2.4203 H       1  UNL1        0.0427
     46 H          -2.1264    3.3637    1.5192 H       1  UNL1        0.0427
     47 H           3.7016   -2.0713   -0.6019 H       1  UNL1        0.0293
     48 H           4.0277   -1.4151    1.0568 H       1  UNL1        0.0293
     49 H          -0.3551    5.5932   -0.8528 H       1  UNL1        0.0391
     50 H          -0.5509    5.8980    0.8636 H       1  UNL1        0.0391
     51 H          -1.9293    5.3137   -0.0791 H       1  UNL1        0.0391
     52 H          -4.5780    1.3450   -1.4925 H       1  UNL1        0.0622
     53 H           4.2723    2.2202   -0.4598 H       1  UNL1        0.0257
     54 H           4.9315    1.2766    0.8829 H       1  UNL1        0.0257
     55 H           5.5475    1.1074   -0.7810 H       1  UNL1        0.0257
     56 H           4.1784   -0.0995   -2.3071 H       1  UNL1        0.2102
     57 H          -5.1716   -0.9281   -0.7296 H       1  UNL1        0.0656
     58 H           2.2459   -1.4576    2.3895 H       1  UNL1        0.0524
     59 H           0.8521   -2.5913    2.1756 H       1  UNL1        0.0524
     60 H           2.4864   -3.1306    1.9182 H       1  UNL1        0.0524
     61 H           6.2458   -0.7044    0.3277 H       1  UNL1        0.0264
     62 H           5.9284   -1.3650   -1.2830 H       1  UNL1        0.0264
     63 H           5.6273   -3.6301   -0.2405 H       1  UNL1        0.0230
     64 H           5.9363   -2.9268    1.3594 H       1  UNL1        0.0230
     65 H           7.2140   -2.9358    0.1321 H       1  UNL1        0.0230
     66 H          -4.5909   -4.9891    0.1381 H       1  UNL1        0.0342
     67 H          -3.1677   -5.6057   -0.7281 H       1  UNL1        0.0342
     68 H          -3.0079   -5.1355    0.9771 H       1  UNL1        0.0342
@<TRIPOS>BOND
     1     1     9    1
     2     1    22    1
     3     2    10    1
     4     2    29    1
     5     3    20    1
     6     3    56    1
     7     4    27    1
     8     4    32    1
     9     5    32    2
    10     6    11    1
    11     6    19    1
    12     6    24    1
    13     7     8    1
    14     7     9    1
    15     7    14    1
    16     7    15    1
    17     8    11    1
    18     8    12    1
    19     8    16    1
    20     9    10    1
    21     9    34    1
    22    10    13    1
    23    10    18    1
    24    11    17    1
    25    11    35    1
    26    12    13    1
    27    12    36    1
    28    12    37    1
    29    13    20    1
    30    13    38    1
    31    14    19    1
    32    14    39    1
    33    14    40    1
    34    15    21   ar
    35    15    22   ar
    36    16    18    2
    37    16    41    1
    38    17    21    1
    39    17    42    1
    40    17    43    1
    41    18    44    1
    42    19    45    1
    43    19    46    1
    44    20    23    1
    45    20    26    1
    46    21    25   ar
    47    22    27   ar
    48    23    30    1
    49    23    47    1
    50    23    48    1
    51    24    49    1
    52    24    50    1
    53    24    51    1
    54    25    28   ar
    55    25    52    1
    56    26    53    1
    57    26    54    1
    58    26    55    1
    59    27    28   ar
    60    28    57    1
    61    29    58    1
    62    29    59    1
    63    29    60    1
    64    30    31    1
    65    30    61    1
    66    30    62    1
    67    31    63    1
    68    31    64    1
    69    31    65    1
    70    32    33    1
    71    33    66    1
    72    33    67    1
    73    33    68    1
@<TRIPOS>MOLECULE
73951893
 63 68 0 0 0
SMALL
GASTEIGER

@<TRIPOS>ATOM
      1 O          -0.2232    1.0927    2.1260 O.3     1  UNL1       -0.4807
      2 O          -1.8933   -1.4012    2.1473 O.3     1  UNL1       -0.3685
      3 O          -3.6841   -1.2882    0.3627 O.3     1  UNL1       -0.3885
      4 O          -0.7646    3.9233    1.8960 O.3     1  UNL1       -0.5033
      5 N           3.5527   -1.2834   -1.1147 N.3     1  UNL1       -0.3012
      6 C           1.3598   -0.1576    0.7470 C.3     1  UNL1        0.0511
      7 C           1.0632   -0.9122   -0.5717 C.3     1  UNL1        0.0184
      8 C           0.2289   -0.2554    1.7863 C.3     1  UNL1        0.1435
      9 C          -0.8827   -1.1693    1.1840 C.3     1  UNL1        0.1301
     10 C           2.3720   -0.4514   -1.3667 C.3     1  UNL1        0.0241
     11 C          -0.3249   -0.5144   -1.2107 C.3     1  UNL1       -0.0330
     12 C          -1.4566   -0.5592   -0.1300 C.3     1  UNL1        0.0247
     13 C           2.7762   -0.6396    1.3085 C.3     1  UNL1       -0.0260
     14 C           1.2355    1.3001    0.3610 C.ar    1  UNL1        0.0118
     15 C           0.7672   -2.3535   -0.1391 C.2     1  UNL1       -0.0765
     16 C           2.1810    0.9660   -2.0051 C.3     1  UNL1       -0.0108
     17 C          -0.2050   -2.4768    0.7881 C.2     1  UNL1       -0.0520
     18 C           3.6022   -1.6249    0.3430 C.3     1  UNL1       -0.0001
     19 C          -2.6908   -1.2943   -0.6647 C.3     1  UNL1        0.0692
     20 C           1.6187    1.8846   -0.8760 C.ar    1  UNL1       -0.0383
     21 C           0.3829    1.9400    1.2296 C.ar    1  UNL1        0.1664
     22 C          -3.2521   -0.5408   -1.8875 C.3     1  UNL1       -0.0241
     23 C           3.7077   -2.4055   -2.0150 C.3     1  UNL1       -0.0124
     24 C           1.3077    3.2267   -1.0760 C.ar    1  UNL1       -0.0546
     25 C          -2.3341   -2.7472   -0.9859 C.3     1  UNL1       -0.0357
     26 C           0.0626    3.2693    1.0413 C.ar    1  UNL1        0.1588
     27 C           0.5605    3.9190   -0.1018 C.ar    1  UNL1       -0.0162
     28 C          -1.3686   -1.9912    3.3317 C.3     1  UNL1        0.0377
     29 C          -3.6153    0.9245   -1.6187 C.3     1  UNL1       -0.0533
     30 C          -4.0837    1.6198   -2.8889 C.3     1  UNL1       -0.0652
     31 H           0.6224   -0.6640    2.7222 H       1  UNL1        0.0775
     32 H           2.0917   -0.9355   -2.3204 H       1  UNL1        0.0474
     33 H          -0.3459    0.4882   -1.6446 H       1  UNL1        0.0279
     34 H          -0.5025   -1.1624   -2.0759 H       1  UNL1        0.0279
     35 H          -1.7568    0.4568    0.1428 H       1  UNL1        0.0361
     36 H           2.6612   -1.1585    2.2670 H       1  UNL1        0.0288
     37 H           3.3990    0.2443    1.4965 H       1  UNL1        0.0288
     38 H           1.2598   -3.2188   -0.5572 H       1  UNL1        0.0576
     39 H           1.4922    0.9641   -2.8577 H       1  UNL1        0.0329
     40 H           3.1500    1.3599   -2.3296 H       1  UNL1        0.0329
     41 H          -0.5025   -3.4511    1.1555 H       1  UNL1        0.0599
     42 H           4.6508   -1.6104    0.6630 H       1  UNL1        0.0427
     43 H           3.2507   -2.6486    0.5150 H       1  UNL1        0.0427
     44 H          -2.5565   -0.5968   -2.7327 H       1  UNL1        0.0293
     45 H          -4.1686   -1.0486   -2.2184 H       1  UNL1        0.0293
     46 H           3.8309   -2.0628   -3.0491 H       1  UNL1        0.0391
     47 H           2.8770   -3.1148   -1.9868 H       1  UNL1        0.0391
     48 H           4.6218   -2.9582   -1.7699 H       1  UNL1        0.0391
     49 H           1.5874    3.7296   -1.9969 H       1  UNL1        0.0622
     50 H          -3.1712   -3.1782   -1.5549 H       1  UNL1        0.0257
     51 H          -2.3077   -3.3857   -0.0990 H       1  UNL1        0.0257
     52 H          -1.4645   -2.9056   -1.6239 H       1  UNL1        0.0257
     53 H          -4.4627   -1.7650    0.0277 H       1  UNL1        0.2102
     54 H           0.3112    4.9623   -0.2850 H       1  UNL1        0.0655
     55 H          -2.2052   -2.4805    3.8413 H       1  UNL1        0.0524
     56 H          -1.0120   -1.2109    4.0114 H       1  UNL1        0.0524
     57 H          -0.5944   -2.7483    3.1894 H       1  UNL1        0.0524
     58 H          -2.7567    1.4947   -1.2554 H       1  UNL1        0.0264
     59 H          -4.4011    0.9875   -0.8580 H       1  UNL1        0.0264
     60 H          -0.8803    4.8373    1.5842 H       1  UNL1        0.2923
     61 H          -4.3434    2.6618   -2.6772 H       1  UNL1        0.0230
     62 H          -4.9694    1.1264   -3.3016 H       1  UNL1        0.0230
     63 H          -3.2989    1.6140   -3.6522 H       1  UNL1        0.0230
@<TRIPOS>BOND
     1     1     8    1
     2     1    21    1
     3     2     9    1
     4     2    28    1
     5     3    19    1
     6     3    53    1
     7     4    26    1
     8     4    60    1
     9     5    10    1
    10     5    18    1
    11     5    23    1
    12     6     7    1
    13     6     8    1
    14     6    13    1
    15     6    14    1
    16     7    10    1
    17     7    11    1
    18     7    15    1
    19     8     9    1
    20     8    31    1
    21     9    12    1
    22     9    17    1
    23    10    16    1
    24    10    32    1
    25    11    12    1
    26    11    33    1
    27    11    34    1
    28    12    19    1
    29    12    35    1
    30    13    18    1
    31    13    36    1
    32    13    37    1
    33    14    20   ar
    34    14    21   ar
    35    15    17    2
    36    15    38    1
    37    16    20    1
    38    16    39    1
    39    16    40    1
    40    17    41    1
    41    18    42    1
    42    18    43    1
    43    19    22    1
    44    19    25    1
    45    20    24   ar
    46    21    26   ar
    47    22    29    1
    48    22    44    1
    49    22    45    1
    50    23    46    1
    51    23    47    1
    52    23    48    1
    53    24    27   ar
    54    24    49    1
    55    25    50    1
    56    25    51    1
    57    25    52    1
    58    26    27   ar
    59    27    54    1
    60    28    55    1
    61    28    56    1
    62    28    57    1
    63    29    30    1
    64    29    58    1
    65    29    59    1
    66    30    61    1
    67    30    62    1
    68    30    63    1
@<TRIPOS>MOLECULE
5288826
 40 44 0 0 0
SMALL
GASTEIGER

@<TRIPOS>ATOM
      1 O          -1.9930   -0.4740    1.2005 O.3     1  UNL1       -0.4811
      2 O          -2.7826   -2.5168   -0.2218 O.3     1  UNL1       -0.3841
      3 O          -3.6220    1.8421    0.5579 O.3     1  UNL1       -0.5033
      4 N           3.1777   -0.0101    0.4474 N.3     1  UNL1       -0.3015
      5 C           0.3699   -0.7149    0.6616 C.3     1  UNL1        0.0480
      6 C           1.2913   -1.3046   -0.4170 C.3     1  UNL1        0.0064
      7 C           2.3441   -0.2023   -0.7640 C.3     1  UNL1        0.0213
      8 C          -0.9377   -1.4750    0.9848 C.3     1  UNL1        0.1399
      9 C           1.1988   -0.3907    1.9201 C.3     1  UNL1       -0.0263
     10 C          -0.2516    0.5302    0.1205 C.ar    1  UNL1        0.0116
     11 C           1.6887    1.1052   -1.3279 C.3     1  UNL1       -0.0110
     12 C           2.4315    0.4754    1.6126 C.3     1  UNL1       -0.0001
     13 C           0.3384    1.4306   -0.7480 C.ar    1  UNL1       -0.0383
     14 C          -1.3631   -2.5067   -0.0924 C.3     1  UNL1        0.1110
     15 C           0.5066   -1.8183   -1.5971 C.2     1  UNL1       -0.0799
     16 C          -1.5672    0.6306    0.5136 C.ar    1  UNL1        0.1663
     17 C          -0.7155   -2.3492   -1.4425 C.2     1  UNL1       -0.0559
     18 C           4.3733    0.7916    0.2084 C.3     1  UNL1       -0.0124
     19 C          -0.4184    2.5415   -1.1246 C.ar    1  UNL1       -0.0546
     20 C          -2.3310    1.7217    0.1620 C.ar    1  UNL1        0.1588
     21 C          -1.7382    2.6936   -0.6541 C.ar    1  UNL1       -0.0162
     22 H           1.8278   -2.1759   -0.0118 H       1  UNL1        0.0368
     23 H           3.0029   -0.6035   -1.5465 H       1  UNL1        0.0472
     24 H          -0.8451   -2.0128    1.9373 H       1  UNL1        0.0772
     25 H           1.5366   -1.3335    2.3712 H       1  UNL1        0.0287
     26 H           0.5899    0.1174    2.6790 H       1  UNL1        0.0287
     27 H           1.5474    0.9596   -2.4075 H       1  UNL1        0.0329
     28 H           2.3530    1.9680   -1.2194 H       1  UNL1        0.0329
     29 H           2.1271    1.5205    1.4760 H       1  UNL1        0.0427
     30 H           3.0801    0.4584    2.4975 H       1  UNL1        0.0427
     31 H          -1.0772   -3.5067    0.2593 H       1  UNL1        0.0675
     32 H           0.9601   -1.7947   -2.5831 H       1  UNL1        0.0573
     33 H          -1.2300   -2.7505   -2.3109 H       1  UNL1        0.0596
     34 H           4.1500    1.8479    0.0287 H       1  UNL1        0.0391
     35 H           4.9380    0.4055   -0.6472 H       1  UNL1        0.0391
     36 H           5.0444    0.7352    1.0730 H       1  UNL1        0.0391
     37 H          -0.0062    3.2824   -1.8043 H       1  UNL1        0.0622
     38 H          -2.3121    3.5638   -0.9645 H       1  UNL1        0.0655
     39 H          -3.1557   -2.6446    0.6672 H       1  UNL1        0.2104
     40 H          -3.8483    1.0686    1.1031 H       1  UNL1        0.2923
@<TRIPOS>BOND
     1     1     8    1
     2     1    16    1
     3     2    14    1
     4     2    39    1
     5     3    20    1
     6     3    40    1
     7     4     7    1
     8     4    12    1
     9     4    18    1
    10     5     6    1
    11     5     8    1
    12     5     9    1
    13     5    10    1
    14     6     7    1
    15     6    15    1
    16     6    22    1
    17     7    11    1
    18     7    23    1
    19     8    14    1
    20     8    24    1
    21     9    12    1
    22     9    25    1
    23     9    26    1
    24    10    13   ar
    25    10    16   ar
    26    11    13    1
    27    11    27    1
    28    11    28    1
    29    12    29    1
    30    12    30    1
    31    13    19   ar
    32    14    17    1
    33    14    31    1
    34    15    17    2
    35    15    32    1
    36    16    20   ar
    37    17    33    1
    38    18    34    1
    39    18    35    1
    40    18    36    1
    41    19    21   ar
    42    19    37    1
    43    20    21   ar
    44    21    38    1
