@<TRIPOS>MOLECULE
3345
 53 55 0 0 0
SMALL
GASTEIGER

@<TRIPOS>ATOM
      1 O          -3.7000   -2.9403   -0.0314 O.2     1  UNL1       -0.2753
      2 N           1.2909   -0.1114   -0.4784 N.3     1  UNL1       -0.3019
      3 N          -2.8764   -0.7175   -0.0363 N.am    1  UNL1       -0.2683
      4 C          -1.4766   -1.0199   -0.2022 C.3     1  UNL1        0.0334
      5 C          -0.9404   -0.4203   -1.5019 C.3     1  UNL1       -0.0210
      6 C          -0.6597   -0.5161    0.9880 C.3     1  UNL1       -0.0210
      7 C           0.5661   -0.6478   -1.6387 C.3     1  UNL1        0.0006
      8 C           0.8373   -0.7417    0.7691 C.3     1  UNL1        0.0006
      9 C           2.7326   -0.2919   -0.6480 C.3     1  UNL1        0.0029
     10 C           3.5059    0.3786    0.4882 C.3     1  UNL1       -0.0149
     11 C          -3.2795    0.6836    0.0623 C.ar    1  UNL1        0.0366
     12 C          -3.8870   -1.7228    0.0362 C.2     1  UNL1        0.2198
     13 C           4.9952    0.2192    0.3135 C.ar    1  UNL1       -0.0462
     14 C          -5.3128   -1.1944    0.1652 C.3     1  UNL1        0.0217
     15 C          -3.3214    1.2427    1.3046 C.ar    1  UNL1       -0.0403
     16 C          -3.5847    1.3353   -1.0951 C.ar    1  UNL1       -0.0403
     17 C          -6.3477   -2.3057    0.2534 C.3     1  UNL1       -0.0570
     18 C           5.6318   -0.8815    0.8667 C.ar    1  UNL1       -0.0585
     19 C           5.7039    1.1761   -0.3973 C.ar    1  UNL1       -0.0585
     20 C          -3.7053    2.5805    1.3984 C.ar    1  UNL1       -0.0600
     21 C          -3.9684    2.6732   -1.0014 C.ar    1  UNL1       -0.0600
     22 C          -4.0287    3.2957    0.2454 C.ar    1  UNL1       -0.0616
     23 C           7.0096   -1.0288    0.7055 C.ar    1  UNL1       -0.0615
     24 C           7.0814    1.0288   -0.5586 C.ar    1  UNL1       -0.0615
     25 C           7.7343   -0.0737   -0.0071 C.ar    1  UNL1       -0.0617
     26 H          -1.3624   -2.1101   -0.2568 H       1  UNL1        0.0505
     27 H          -1.1021    0.6624   -1.5464 H       1  UNL1        0.0296
     28 H          -1.4600   -0.8563   -2.3638 H       1  UNL1        0.0296
     29 H          -0.9803   -1.0212    1.9074 H       1  UNL1        0.0296
     30 H          -0.8000    0.5585    1.1496 H       1  UNL1        0.0296
     31 H           0.7659   -1.7204   -1.7631 H       1  UNL1        0.0427
     32 H           0.9046   -0.1462   -2.5537 H       1  UNL1        0.0427
     33 H           1.3201   -0.3087    1.6486 H       1  UNL1        0.0427
     34 H           1.0535   -1.8182    0.7685 H       1  UNL1        0.0427
     35 H           2.9914   -1.3578   -0.7077 H       1  UNL1        0.0430
     36 H           3.0464    0.1616   -1.5975 H       1  UNL1        0.0430
     37 H           3.2645   -0.0385    1.4708 H       1  UNL1        0.0326
     38 H           3.2545    1.4462    0.5438 H       1  UNL1        0.0326
     39 H          -5.5528   -0.5791   -0.7074 H       1  UNL1        0.0356
     40 H          -5.3980   -0.5875    1.0716 H       1  UNL1        0.0356
     41 H          -3.0829    0.6864    2.2049 H       1  UNL1        0.0636
     42 H          -3.5516    0.8515   -2.0656 H       1  UNL1        0.0636
     43 H          -7.3527   -1.8831    0.3501 H       1  UNL1        0.0234
     44 H          -6.1624   -2.9480    1.1206 H       1  UNL1        0.0234
     45 H          -6.3274   -2.9349   -0.6426 H       1  UNL1        0.0234
     46 H           5.0764   -1.6325    1.4212 H       1  UNL1        0.0620
     47 H           5.2042    2.0372   -0.8319 H       1  UNL1        0.0620
     48 H          -3.7553    3.0642    2.3695 H       1  UNL1        0.0618
     49 H          -4.2233    3.2291   -1.8989 H       1  UNL1        0.0618
     50 H          -4.3290    4.3368    0.3186 H       1  UNL1        0.0618
     51 H           7.5179   -1.8876    1.1341 H       1  UNL1        0.0618
     52 H           7.6458    1.7722   -1.1140 H       1  UNL1        0.0618
     53 H           8.8069   -0.1885   -0.1331 H       1  UNL1        0.0618
@<TRIPOS>BOND
     1     1    12    2
     2     2     7    1
     3     2     8    1
     4     2     9    1
     5     3     4    1
     6     3    11    1
     7     3    12   am
     8     4     5    1
     9     4     6    1
    10     4    26    1
    11     5     7    1
    12     5    27    1
    13     5    28    1
    14     6     8    1
    15     6    29    1
    16     6    30    1
    17     7    31    1
    18     7    32    1
    19     8    33    1
    20     8    34    1
    21     9    10    1
    22     9    35    1
    23     9    36    1
    24    10    13    1
    25    10    37    1
    26    10    38    1
    27    11    15   ar
    28    11    16   ar
    29    12    14    1
    30    13    18   ar
    31    13    19   ar
    32    14    17    1
    33    14    39    1
    34    14    40    1
    35    15    20   ar
    36    15    41    1
    37    16    21   ar
    38    16    42    1
    39    17    43    1
    40    17    44    1
    41    17    45    1
    42    18    23   ar
    43    18    46    1
    44    19    24   ar
    45    19    47    1
    46    20    22   ar
    47    20    48    1
    48    21    22   ar
    49    21    49    1
    50    22    50    1
    51    23    25   ar
    52    23    51    1
    53    24    25   ar
    54    24    52    1
    55    25    53    1
@<TRIPOS>MOLECULE
45039251
 53 55 0 0 0
SMALL
GASTEIGER

@<TRIPOS>ATOM
      1 O          -2.2740    2.6326   -0.5413 O.2     1  UNL1       -0.2753
      2 N           1.4694    0.1358   -0.3966 N.3     1  UNL1       -0.3019
      3 N          -2.7531    0.3441   -0.1589 N.am    1  UNL1       -0.2683
      4 C          -1.4291   -0.2230   -0.2221 C.3     1  UNL1        0.0334
      5 C          -0.5863    0.2116    0.9773 C.3     1  UNL1       -0.0210
      6 C          -0.7319    0.1658   -1.5256 C.3     1  UNL1       -0.0210
      7 C           0.8498   -0.3023    0.8618 C.3     1  UNL1        0.0006
      8 C           0.7094   -0.3454   -1.5586 C.3     1  UNL1        0.0006
      9 C           2.8576   -0.3199   -0.4691 C.3     1  UNL1        0.0029
     10 C           3.7828    0.6164    0.3088 C.3     1  UNL1       -0.0149
     11 C          -3.8781   -0.5841   -0.0800 C.ar    1  UNL1        0.0366
     12 C          -2.9946    1.7474   -0.0734 C.2     1  UNL1        0.2198
     13 C           5.2207    0.1703    0.2240 C.ar    1  UNL1       -0.0462
     14 C          -4.2919    2.1369    0.6295 C.3     1  UNL1        0.0217
     15 C          -4.9048   -0.5170   -1.0219 C.ar    1  UNL1       -0.0403
     16 C          -3.9250   -1.5384    0.9361 C.ar    1  UNL1       -0.0403
     17 C          -4.2019    3.4851    1.3284 C.3     1  UNL1       -0.0570
     18 C           5.7347   -0.7105    1.1756 C.ar    1  UNL1       -0.0585
     19 C           6.0366    0.6380   -0.8061 C.ar    1  UNL1       -0.0585
     20 C          -5.9785   -1.4045   -0.9475 C.ar    1  UNL1       -0.0600
     21 C          -4.9986   -2.4259    1.0104 C.ar    1  UNL1       -0.0600
     22 C          -6.0254   -2.3588    0.0686 C.ar    1  UNL1       -0.0616
     23 C           7.0648   -1.1235    1.0973 C.ar    1  UNL1       -0.0615
     24 C           7.3666    0.2251   -0.8844 C.ar    1  UNL1       -0.0615
     25 C           7.8808   -0.6557    0.0674 C.ar    1  UNL1       -0.0617
     26 H          -1.5000   -1.3192   -0.2100 H       1  UNL1        0.0505
     27 H          -0.5613    1.3053    1.0648 H       1  UNL1        0.0296
     28 H          -1.0338   -0.1604    1.9070 H       1  UNL1        0.0296
     29 H          -1.2849   -0.2431   -2.3804 H       1  UNL1        0.0296
     30 H          -0.7087    1.2513   -1.6674 H       1  UNL1        0.0296
     31 H           0.8506   -1.3979    0.9383 H       1  UNL1        0.0427
     32 H           1.4067    0.0810    1.7236 H       1  UNL1        0.0427
     33 H           1.1723    0.0160   -2.4852 H       1  UNL1        0.0427
     34 H           0.7121   -1.4427   -1.5992 H       1  UNL1        0.0427
     35 H           2.9610   -1.3593   -0.1296 H       1  UNL1        0.0430
     36 H           3.1974   -0.3125   -1.5143 H       1  UNL1        0.0430
     37 H           3.4980    0.6744    1.3661 H       1  UNL1        0.0326
     38 H           3.6972    1.6410   -0.0774 H       1  UNL1        0.0326
     39 H          -5.0935    2.1712   -0.1154 H       1  UNL1        0.0356
     40 H          -4.5526    1.3957    1.3912 H       1  UNL1        0.0356
     41 H          -4.8764    0.2150   -1.8248 H       1  UNL1        0.0636
     42 H          -3.1393   -1.5994    1.6841 H       1  UNL1        0.0636
     43 H          -3.3848    3.4928    2.0573 H       1  UNL1        0.0234
     44 H          -4.0174    4.2902    0.6097 H       1  UNL1        0.0234
     45 H          -5.1361    3.7060    1.8539 H       1  UNL1        0.0234
     46 H           5.1082   -1.0835    1.9815 H       1  UNL1        0.0620
     47 H           5.6471    1.3229   -1.5545 H       1  UNL1        0.0620
     48 H          -6.7769   -1.3536   -1.6820 H       1  UNL1        0.0618
     49 H          -5.0363   -3.1677    1.8028 H       1  UNL1        0.0618
     50 H          -6.8614   -3.0497    0.1265 H       1  UNL1        0.0618
     51 H           7.4649   -1.8098    1.8380 H       1  UNL1        0.0618
     52 H           8.0019    0.5889   -1.6866 H       1  UNL1        0.0618
     53 H           8.9163   -0.9774    0.0062 H       1  UNL1        0.0618
@<TRIPOS>BOND
     1     1    12    2
     2     2     7    1
     3     2     8    1
     4     2     9    1
     5     3     4    1
     6     3    11    1
     7     3    12   am
     8     4     5    1
     9     4     6    1
    10     4    26    1
    11     5     7    1
    12     5    27    1
    13     5    28    1
    14     6     8    1
    15     6    29    1
    16     6    30    1
    17     7    31    1
    18     7    32    1
    19     8    33    1
    20     8    34    1
    21     9    10    1
    22     9    35    1
    23     9    36    1
    24    10    13    1
    25    10    37    1
    26    10    38    1
    27    11    15   ar
    28    11    16   ar
    29    12    14    1
    30    13    18   ar
    31    13    19   ar
    32    14    17    1
    33    14    39    1
    34    14    40    1
    35    15    20   ar
    36    15    41    1
    37    16    21   ar
    38    16    42    1
    39    17    43    1
    40    17    44    1
    41    17    45    1
    42    18    23   ar
    43    18    46    1
    44    19    24   ar
    45    19    47    1
    46    20    22   ar
    47    20    48    1
    48    21    22   ar
    49    21    49    1
    50    22    50    1
    51    23    25   ar
    52    23    51    1
    53    24    25   ar
    54    24    52    1
    55    25    53    1
@<TRIPOS>MOLECULE
527016
 59 61 0 0 0
SMALL
GASTEIGER

@<TRIPOS>ATOM
      1 O          -3.3197   -2.7925    0.4662 O.2     1  UNL1       -0.2752
      2 N           1.4793    0.2289    0.3511 N.3     1  UNL1       -0.2992
      3 N          -2.6883   -0.5159    0.2761 N.am    1  UNL1       -0.2683
      4 C          -1.2949   -0.6621    0.6162 C.3     1  UNL1        0.0334
      5 C          -0.7670    0.5865    1.3235 C.3     1  UNL1       -0.0210
      6 C          -0.4586   -0.9567   -0.6287 C.3     1  UNL1       -0.0210
      7 C           0.7348    0.4782    1.5933 C.3     1  UNL1        0.0009
      8 C           1.0332   -1.0130   -0.2953 C.3     1  UNL1        0.0009
      9 C           2.9168    0.1789    0.6176 C.3     1  UNL1        0.0116
     10 C           3.6745   -0.0889   -0.6956 C.3     1  UNL1       -0.0123
     11 C           3.3304    1.4961    1.2743 C.3     1  UNL1       -0.0492
     12 C          -3.1925    0.8198   -0.0353 C.ar    1  UNL1        0.0366
     13 C          -3.5985   -1.6144    0.2294 C.2     1  UNL1        0.2200
     14 C           5.1701   -0.1988   -0.5192 C.ar    1  UNL1       -0.0459
     15 C          -5.0199   -1.2557   -0.1982 C.3     1  UNL1        0.0242
     16 C          -3.6769    1.5680    0.9959 C.ar    1  UNL1       -0.0403
     17 C          -3.1433    1.2262   -1.3355 C.ar    1  UNL1       -0.0403
     18 C          -5.9507   -2.4689   -0.2307 C.3     1  UNL1       -0.0476
     19 C           5.9512    0.9416   -0.6193 C.ar    1  UNL1       -0.0585
     20 C           5.7342   -1.4377   -0.2600 C.ar    1  UNL1       -0.0585
     21 C          -4.1579    2.8433    0.6989 C.ar    1  UNL1       -0.0600
     22 C          -3.6243    2.5014   -1.6324 C.ar    1  UNL1       -0.0600
     23 C           7.3327    0.8404   -0.4562 C.ar    1  UNL1       -0.0615
     24 C           7.1158   -1.5389   -0.0968 C.ar    1  UNL1       -0.0615
     25 C          -4.1315    3.3099   -0.6152 C.ar    1  UNL1       -0.0616
     26 C          -7.3642   -2.0763   -0.6292 C.3     1  UNL1       -0.0648
     27 C           7.9150   -0.3997   -0.1948 C.ar    1  UNL1       -0.0617
     28 H          -1.2058   -1.5185    1.2976 H       1  UNL1        0.0505
     29 H          -0.9087    1.4943    0.7241 H       1  UNL1        0.0296
     30 H          -1.2853    0.7341    2.2786 H       1  UNL1        0.0296
     31 H          -0.7720   -1.9083   -1.0760 H       1  UNL1        0.0296
     32 H          -0.6193   -0.1882   -1.3949 H       1  UNL1        0.0296
     33 H           0.9228   -0.3109    2.3332 H       1  UNL1        0.0427
     34 H           0.9965    1.4356    2.0516 H       1  UNL1        0.0427
     35 H           1.5032   -1.1741   -1.2676 H       1  UNL1        0.0427
     36 H           1.2428   -1.8879    0.3337 H       1  UNL1        0.0427
     37 H           3.1467   -0.6335    1.3220 H       1  UNL1        0.0463
     38 H           3.4529    0.6953   -1.4329 H       1  UNL1        0.0328
     39 H           3.3880   -1.0321   -1.1693 H       1  UNL1        0.0328
     40 H           2.9543    1.6002    2.2968 H       1  UNL1        0.0245
     41 H           3.0110    2.3648    0.6873 H       1  UNL1        0.0245
     42 H           4.4142    1.5640    1.3977 H       1  UNL1        0.0245
     43 H          -4.9941   -0.8164   -1.2007 H       1  UNL1        0.0358
     44 H          -5.4332   -0.5265    0.5060 H       1  UNL1        0.0358
     45 H          -3.7077    1.2037    2.0173 H       1  UNL1        0.0636
     46 H          -2.7588    0.5968   -2.1307 H       1  UNL1        0.0636
     47 H          -5.9749   -2.9489    0.7549 H       1  UNL1        0.0267
     48 H          -5.5691   -3.2142   -0.9386 H       1  UNL1        0.0267
     49 H           5.5103    1.9116   -0.8310 H       1  UNL1        0.0620
     50 H           5.1208   -2.3304   -0.1780 H       1  UNL1        0.0620
     51 H          -4.5551    3.4717    1.4906 H       1  UNL1        0.0618
     52 H          -3.6060    2.8639   -2.6561 H       1  UNL1        0.0618
     53 H           7.9553    1.7270   -0.5344 H       1  UNL1        0.0618
     54 H           7.5693   -2.5044    0.1076 H       1  UNL1        0.0618
     55 H          -7.7874   -1.3591    0.0813 H       1  UNL1        0.0230
     56 H          -8.0117   -2.9585   -0.6474 H       1  UNL1        0.0230
     57 H          -7.3793   -1.6231   -1.6256 H       1  UNL1        0.0230
     58 H          -4.5071    4.3024   -0.8466 H       1  UNL1        0.0618
     59 H           8.9908   -0.4787   -0.0679 H       1  UNL1        0.0618
@<TRIPOS>BOND
     1     1    13    2
     2     2     7    1
     3     2     8    1
     4     2     9    1
     5     3     4    1
     6     3    12    1
     7     3    13   am
     8     4     5    1
     9     4     6    1
    10     4    28    1
    11     5     7    1
    12     5    29    1
    13     5    30    1
    14     6     8    1
    15     6    31    1
    16     6    32    1
    17     7    33    1
    18     7    34    1
    19     8    35    1
    20     8    36    1
    21     9    10    1
    22     9    11    1
    23     9    37    1
    24    10    14    1
    25    10    38    1
    26    10    39    1
    27    11    40    1
    28    11    41    1
    29    11    42    1
    30    12    16   ar
    31    12    17   ar
    32    13    15    1
    33    14    19   ar
    34    14    20   ar
    35    15    18    1
    36    15    43    1
    37    15    44    1
    38    16    21   ar
    39    16    45    1
    40    17    22   ar
    41    17    46    1
    42    18    26    1
    43    18    47    1
    44    18    48    1
    45    19    23   ar
    46    19    49    1
    47    20    24   ar
    48    20    50    1
    49    21    25   ar
    50    21    51    1
    51    22    25   ar
    52    22    52    1
    53    23    27   ar
    54    23    53    1
    55    24    27   ar
    56    24    54    1
    57    25    58    1
    58    26    55    1
    59    26    56    1
    60    26    57    1
    61    27    59    1
@<TRIPOS>MOLECULE
137700000
 56 58 0 0 0
SMALL
GASTEIGER

@<TRIPOS>ATOM
      1 F          -5.1211   -3.1285    1.6465 F       1  UNL1       -0.2054
      2 O          -1.8347    2.6271   -0.7341 O.2     1  UNL1       -0.2750
      3 N           1.8471    0.2265    0.3236 N.3     1  UNL1       -0.3019
      4 N          -2.3511    0.3850   -0.2048 N.am    1  UNL1       -0.2680
      5 C          -1.0321   -0.1661   -0.0180 C.3     1  UNL1        0.0334
      6 C          -0.1157    0.2080   -1.1826 C.3     1  UNL1       -0.0210
      7 C          -0.4227    0.3006    1.3043 C.3     1  UNL1       -0.0210
      8 C           1.3129   -0.2853   -0.9460 C.3     1  UNL1        0.0006
      9 C           1.0156   -0.1968    1.4588 C.3     1  UNL1        0.0006
     10 C           3.2299   -0.2126    0.5106 C.3     1  UNL1        0.0029
     11 C          -2.6203    1.7827   -0.2906 C.2     1  UNL1        0.2226
     12 C           4.1809    0.5722   -0.3936 C.3     1  UNL1       -0.0149
     13 C          -3.4761   -0.5414   -0.3126 C.ar    1  UNL1        0.0393
     14 C          -3.9897    2.2504    0.2255 C.3     1  UNL1        0.0305
     15 C           5.6078    0.1140   -0.2267 C.ar    1  UNL1       -0.0462
     16 C          -3.7668   -1.4103    0.7391 C.ar    1  UNL1       -0.0050
     17 C          -4.2602   -0.5555   -1.4661 C.ar    1  UNL1       -0.0401
     18 C          -4.4131    3.5216   -0.5104 C.3     1  UNL1       -0.0543
     19 C          -3.9467    2.5221    1.7326 C.3     1  UNL1       -0.0543
     20 C          -4.8415   -2.2934    0.6373 C.ar    1  UNL1        0.1252
     21 C          -5.3351   -1.4386   -1.5679 C.ar    1  UNL1       -0.0573
     22 C           6.4276    0.7180    0.7265 C.ar    1  UNL1       -0.0585
     23 C           6.1079   -0.9141   -1.0258 C.ar    1  UNL1       -0.0585
     24 C          -5.6257   -2.3077   -0.5161 C.ar    1  UNL1       -0.0263
     25 C           7.7476    0.2941    0.8806 C.ar    1  UNL1       -0.0615
     26 C           7.4277   -1.3380   -0.8718 C.ar    1  UNL1       -0.0615
     27 C           8.2476   -0.7340    0.0815 C.ar    1  UNL1       -0.0617
     28 H          -1.1013   -1.2624    0.0067 H       1  UNL1        0.0505
     29 H          -0.0660    1.2893   -1.3403 H       1  UNL1        0.0296
     30 H          -0.5031   -0.2219   -2.1147 H       1  UNL1        0.0296
     31 H          -1.0267   -0.0594    2.1460 H       1  UNL1        0.0296
     32 H          -0.4285    1.3966    1.3687 H       1  UNL1        0.0296
     33 H           1.9096    0.0547   -1.7979 H       1  UNL1        0.0427
     34 H           1.3260   -1.3833   -0.9612 H       1  UNL1        0.0427
     35 H           1.0199   -1.2901    1.5601 H       1  UNL1        0.0427
     36 H           1.4167    0.2184    2.3915 H       1  UNL1        0.0427
     37 H           3.5385   -0.0299    1.5492 H       1  UNL1        0.0430
     38 H           3.3305   -1.2944    0.3486 H       1  UNL1        0.0430
     39 H           4.1142    1.6456   -0.1712 H       1  UNL1        0.0326
     40 H           3.9205    0.4742   -1.4531 H       1  UNL1        0.0326
     41 H          -4.7711    1.5125    0.0420 H       1  UNL1        0.0389
     42 H          -3.1697   -1.4067    1.6469 H       1  UNL1        0.0665
     43 H          -4.0415    0.1127   -2.2950 H       1  UNL1        0.0636
     44 H          -3.7324    4.3559   -0.3074 H       1  UNL1        0.0237
     45 H          -5.4190    3.8294   -0.2051 H       1  UNL1        0.0237
     46 H          -4.4264    3.3573   -1.5935 H       1  UNL1        0.0237
     47 H          -3.1959    3.2819    1.9760 H       1  UNL1        0.0237
     48 H          -3.6807    1.6122    2.2811 H       1  UNL1        0.0237
     49 H          -4.9189    2.8680    2.0982 H       1  UNL1        0.0237
     50 H          -5.9451   -1.4504   -2.4663 H       1  UNL1        0.0619
     51 H           6.0489    1.5187    1.3562 H       1  UNL1        0.0620
     52 H           5.4783   -1.3941   -1.7704 H       1  UNL1        0.0620
     53 H          -6.4623   -2.9956   -0.5952 H       1  UNL1        0.0646
     54 H           8.3859    0.7640    1.6231 H       1  UNL1        0.0618
     55 H           7.8170   -2.1389   -1.4935 H       1  UNL1        0.0618
     56 H           9.2752   -1.0644    0.2015 H       1  UNL1        0.0618
@<TRIPOS>BOND
     1     1    20    1
     2     2    11    2
     3     3     8    1
     4     3     9    1
     5     3    10    1
     6     4     5    1
     7     4    11   am
     8     4    13    1
     9     5     6    1
    10     5     7    1
    11     5    28    1
    12     6     8    1
    13     6    29    1
    14     6    30    1
    15     7     9    1
    16     7    31    1
    17     7    32    1
    18     8    33    1
    19     8    34    1
    20     9    35    1
    21     9    36    1
    22    10    12    1
    23    10    37    1
    24    10    38    1
    25    11    14    1
    26    12    15    1
    27    12    39    1
    28    12    40    1
    29    13    16   ar
    30    13    17   ar
    31    14    18    1
    32    14    19    1
    33    14    41    1
    34    15    22   ar
    35    15    23   ar
    36    16    20   ar
    37    16    42    1
    38    17    21   ar
    39    17    43    1
    40    18    44    1
    41    18    45    1
    42    18    46    1
    43    19    47    1
    44    19    48    1
    45    19    49    1
    46    20    24   ar
    47    21    24   ar
    48    21    50    1
    49    22    25   ar
    50    22    51    1
    51    23    26   ar
    52    23    52    1
    53    24    53    1
    54    25    27   ar
    55    25    54    1
    56    26    27   ar
    57    26    55    1
    58    27    56    1
@<TRIPOS>MOLECULE
129522102
 56 58 0 0 0
SMALL
GASTEIGER

@<TRIPOS>ATOM
      1 F          -2.4078    2.0944    1.4919 F       1  UNL1       -0.2035
      2 O          -2.0091   -2.2494   -1.1901 O.2     1  UNL1       -0.2752
      3 N           1.7582   -0.1626    0.2162 N.3     1  UNL1       -0.3019
      4 N          -2.4536   -0.1347   -0.2197 N.am    1  UNL1       -0.2657
      5 C          -1.1133    0.3523   -0.0079 C.3     1  UNL1        0.0335
      6 C          -0.4929   -0.2839    1.2357 C.3     1  UNL1       -0.0210
      7 C          -0.2328    0.0904   -1.2300 C.3     1  UNL1       -0.0210
      8 C           0.9638    0.1480    1.4128 C.3     1  UNL1        0.0006
      9 C           1.2150    0.5110   -0.9714 C.3     1  UNL1        0.0006
     10 C           3.1578    0.2103    0.4206 C.3     1  UNL1        0.0029
     11 C           4.0818   -0.6212   -0.4698 C.3     1  UNL1       -0.0149
     12 C          -3.5372    0.8438   -0.1822 C.ar    1  UNL1        0.0718
     13 C          -2.7449   -1.4905   -0.5542 C.2     1  UNL1        0.2201
     14 C          -4.0755   -2.0156   -0.0197 C.3     1  UNL1        0.0242
     15 C           5.5302   -0.2619   -0.2529 C.ar    1  UNL1       -0.0462
     16 C          -3.4671    1.9331    0.6860 C.ar    1  UNL1        0.1447
     17 C          -4.6444    0.6864   -1.0157 C.ar    1  UNL1       -0.0375
     18 C          -4.0469   -3.5185    0.2612 C.3     1  UNL1       -0.0476
     19 C           6.1217    0.7435   -1.0177 C.ar    1  UNL1       -0.0585
     20 C           6.2783   -0.9351    0.7127 C.ar    1  UNL1       -0.0585
     21 C          -4.5042    2.8652    0.7208 C.ar    1  UNL1       -0.0246
     22 C          -5.6817    1.6186   -0.9810 C.ar    1  UNL1       -0.0598
     23 C          -5.3732   -4.0062    0.8216 C.3     1  UNL1       -0.0648
     24 C          -5.6116    2.7080   -0.1127 C.ar    1  UNL1       -0.0589
     25 C           7.4617    1.0755   -0.8169 C.ar    1  UNL1       -0.0615
     26 C           7.6181   -0.6032    0.9136 C.ar    1  UNL1       -0.0615
     27 C           8.2098    0.4021    0.1487 C.ar    1  UNL1       -0.0617
     28 H          -1.0870    1.4401    0.0941 H       1  UNL1        0.0505
     29 H          -0.5341   -1.3793    1.1690 H       1  UNL1        0.0296
     30 H          -1.0667   -0.0089    2.1288 H       1  UNL1        0.0296
     31 H          -0.6252    0.6325   -2.0995 H       1  UNL1        0.0296
     32 H          -0.2055   -0.9654   -1.5103 H       1  UNL1        0.0296
     33 H           1.3685   -0.3876    2.2803 H       1  UNL1        0.0427
     34 H           1.0063    1.2210    1.6422 H       1  UNL1        0.0427
     35 H           1.2620    1.6025   -0.8584 H       1  UNL1        0.0427
     36 H           1.7971    0.2559   -1.8637 H       1  UNL1        0.0427
     37 H           3.4480    0.0096    1.4615 H       1  UNL1        0.0430
     38 H           3.3166    1.2866    0.2693 H       1  UNL1        0.0430
     39 H           3.8446   -0.4851   -1.5317 H       1  UNL1        0.0326
     40 H           3.9392   -1.6915   -0.2693 H       1  UNL1        0.0326
     41 H          -4.8587   -1.8553   -0.7636 H       1  UNL1        0.0358
     42 H          -4.3412   -1.4896    0.9041 H       1  UNL1        0.0358
     43 H          -4.6944   -0.0888   -1.7733 H       1  UNL1        0.0637
     44 H          -3.8216   -4.0703   -0.6592 H       1  UNL1        0.0267
     45 H          -3.2439   -3.7471    0.9720 H       1  UNL1        0.0267
     46 H           5.5485    1.2766   -1.7715 H       1  UNL1        0.0620
     47 H           5.8281   -1.7189    1.3161 H       1  UNL1        0.0620
     48 H          -4.4487    3.7139    1.3961 H       1  UNL1        0.0647
     49 H          -6.5335    1.5089   -1.6459 H       1  UNL1        0.0618
     50 H          -5.6108   -3.5012    1.7634 H       1  UNL1        0.0230
     51 H          -5.3297   -5.0825    1.0154 H       1  UNL1        0.0230
     52 H          -6.1896   -3.8208    0.1163 H       1  UNL1        0.0230
     53 H          -6.4166    3.4367   -0.0895 H       1  UNL1        0.0618
     54 H           7.9222    1.8586   -1.4120 H       1  UNL1        0.0618
     55 H           8.2006   -1.1270    1.6658 H       1  UNL1        0.0618
     56 H           9.2529    0.6607    0.3053 H       1  UNL1        0.0618
@<TRIPOS>BOND
     1     1    16    1
     2     2    13    2
     3     3     8    1
     4     3     9    1
     5     3    10    1
     6     4     5    1
     7     4    12    1
     8     4    13   am
     9     5     6    1
    10     5     7    1
    11     5    28    1
    12     6     8    1
    13     6    29    1
    14     6    30    1
    15     7     9    1
    16     7    31    1
    17     7    32    1
    18     8    33    1
    19     8    34    1
    20     9    35    1
    21     9    36    1
    22    10    11    1
    23    10    37    1
    24    10    38    1
    25    11    15    1
    26    11    39    1
    27    11    40    1
    28    12    16   ar
    29    12    17   ar
    30    13    14    1
    31    14    18    1
    32    14    41    1
    33    14    42    1
    34    15    19   ar
    35    15    20   ar
    36    16    21   ar
    37    17    22   ar
    38    17    43    1
    39    18    23    1
    40    18    44    1
    41    18    45    1
    42    19    25   ar
    43    19    46    1
    44    20    26   ar
    45    20    47    1
    46    21    24   ar
    47    21    48    1
    48    22    24   ar
    49    22    49    1
    50    23    50    1
    51    23    51    1
    52    23    52    1
    53    24    53    1
    54    25    27   ar
    55    25    54    1
    56    26    27   ar
    57    26    55    1
    58    27    56    1
@<TRIPOS>MOLECULE
10545121
 50 52 0 0 0
SMALL
GASTEIGER

@<TRIPOS>ATOM
      1 F          -3.3875   -4.3683    0.0711 F       1  UNL1       -0.2055
      2 O          -3.0100    3.1637   -0.4579 O.2     1  UNL1       -0.2753
      3 N           1.9721    0.6824    1.0027 N.3     1  UNL1       -0.2980
      4 N          -2.1152    1.0059   -0.0551 N.am    1  UNL1       -0.2683
      5 C          -0.7629    1.4007    0.2512 C.3     1  UNL1        0.0334
      6 C          -0.3876    0.9973    1.6768 C.3     1  UNL1       -0.0210
      7 C           0.2262    0.7965   -0.7461 C.3     1  UNL1       -0.0210
      8 C           1.0770    1.3200    1.9782 C.3     1  UNL1        0.0009
      9 C           1.6703    1.1271   -0.3650 C.3     1  UNL1        0.0009
     10 C           3.3698    0.9590    1.3338 C.3     1  UNL1        0.0240
     11 C          -2.4504   -0.4161   -0.0213 C.ar    1  UNL1        0.0367
     12 C          -3.1421    1.9390   -0.3896 C.2     1  UNL1        0.2198
     13 C           4.3176    0.2516    0.4021 C.ar    1  UNL1       -0.0334
     14 C          -4.5170    1.3235   -0.6333 C.3     1  UNL1        0.0217
     15 C          -2.3024   -1.1269   -1.1747 C.ar    1  UNL1       -0.0376
     16 C          -2.8894   -0.9332    1.1609 C.ar    1  UNL1       -0.0376
     17 C           4.7620   -1.0245    0.7188 C.ar    1  UNL1       -0.0573
     18 C           4.7339    0.8856   -0.7602 C.ar    1  UNL1       -0.0573
     19 C          -5.5697    2.3584   -1.0005 C.3     1  UNL1       -0.0570
     20 C          -2.6240   -2.4839   -1.1428 C.ar    1  UNL1       -0.0247
     21 C          -3.2109   -2.2902    1.1926 C.ar    1  UNL1       -0.0247
     22 C           5.6406   -1.6799   -0.1441 C.ar    1  UNL1       -0.0615
     23 C           5.6123    0.2303   -1.6232 C.ar    1  UNL1       -0.0615
     24 C          -3.0783   -3.0655    0.0409 C.ar    1  UNL1        0.1235
     25 C           6.0656   -1.0523   -1.3151 C.ar    1  UNL1       -0.0617
     26 H          -0.6966    2.4937    0.1772 H       1  UNL1        0.0505
     27 H          -0.5149   -0.0784    1.8411 H       1  UNL1        0.0296
     28 H          -1.0350    1.5091    2.3992 H       1  UNL1        0.0296
     29 H           0.0158    1.1647   -1.7578 H       1  UNL1        0.0296
     30 H           0.1477   -0.2958   -0.7820 H       1  UNL1        0.0296
     31 H           1.2190    2.4088    1.9861 H       1  UNL1        0.0427
     32 H           1.3061    0.9552    2.9870 H       1  UNL1        0.0427
     33 H           2.2725    0.5997   -1.1091 H       1  UNL1        0.0427
     34 H           1.8457    2.2044   -0.4823 H       1  UNL1        0.0427
     35 H           3.5828    0.6291    2.3597 H       1  UNL1        0.0476
     36 H           3.5783    2.0382    1.3214 H       1  UNL1        0.0476
     37 H          -4.8515    0.8102    0.2734 H       1  UNL1        0.0356
     38 H          -4.4559    0.6045   -1.4559 H       1  UNL1        0.0356
     39 H          -1.9620   -0.6757   -2.1006 H       1  UNL1        0.0637
     40 H          -3.0064   -0.3310    2.0556 H       1  UNL1        0.0637
     41 H           4.4357   -1.5234    1.6271 H       1  UNL1        0.0621
     42 H           4.4030    1.8906   -1.0064 H       1  UNL1        0.0621
     43 H          -6.5362    1.8741   -1.1714 H       1  UNL1        0.0234
     44 H          -5.2912    2.8965   -1.9126 H       1  UNL1        0.0234
     45 H          -5.6941    3.0948   -0.1996 H       1  UNL1        0.0234
     46 H          -2.5237   -3.0872   -2.0403 H       1  UNL1        0.0647
     47 H          -3.5675   -2.7425    2.1134 H       1  UNL1        0.0647
     48 H           5.9933   -2.6788    0.0954 H       1  UNL1        0.0618
     49 H           5.9462    0.7202   -2.5332 H       1  UNL1        0.0618
     50 H           6.7501   -1.5622   -1.9867 H       1  UNL1        0.0618
@<TRIPOS>BOND
     1     1    24    1
     2     2    12    2
     3     3     8    1
     4     3     9    1
     5     3    10    1
     6     4     5    1
     7     4    11    1
     8     4    12   am
     9     5     6    1
    10     5     7    1
    11     5    26    1
    12     6     8    1
    13     6    27    1
    14     6    28    1
    15     7     9    1
    16     7    29    1
    17     7    30    1
    18     8    31    1
    19     8    32    1
    20     9    33    1
    21     9    34    1
    22    10    13    1
    23    10    35    1
    24    10    36    1
    25    11    15   ar
    26    11    16   ar
    27    12    14    1
    28    13    17   ar
    29    13    18   ar
    30    14    19    1
    31    14    37    1
    32    14    38    1
    33    15    20   ar
    34    15    39    1
    35    16    21   ar
    36    16    40    1
    37    17    22   ar
    38    17    41    1
    39    18    23   ar
    40    18    42    1
    41    19    43    1
    42    19    44    1
    43    19    45    1
    44    20    24   ar
    45    20    46    1
    46    21    24   ar
    47    21    47    1
    48    22    25   ar
    49    22    48    1
    50    23    25   ar
    51    23    49    1
    52    25    50    1
@<TRIPOS>MOLECULE
137700045
 57 60 0 0 0
SMALL
GASTEIGER

@<TRIPOS>ATOM
      1 O          -1.7494    2.6643   -0.9927 O.2     1  UNL1       -0.2749
      2 N          -2.3055    0.4448   -0.3433 N.am    1  UNL1       -0.2681
      3 N           1.9120    0.0874   -0.4641 N.3     1  UNL1       -0.3019
      4 C          -3.7464    2.4044    0.1631 C.3     1  UNL1        0.0361
      5 C          -3.6300    3.5152    1.1483 C.3     1  UNL1       -0.0412
      6 C          -4.0129    2.1391    1.6042 C.3     1  UNL1       -0.0412
      7 C          -0.9992   -0.1644   -0.3143 C.3     1  UNL1        0.0334
      8 C          -0.2661    0.0559   -1.6373 C.3     1  UNL1       -0.0210
      9 C          -0.1654    0.3763    0.8476 C.3     1  UNL1       -0.0210
     10 C          -2.4880    1.8556   -0.4396 C.2     1  UNL1        0.2231
     11 C           1.1587   -0.4980   -1.5818 C.3     1  UNL1        0.0006
     12 C           1.2557   -0.1892    0.8213 C.3     1  UNL1        0.0006
     13 C           3.2861   -0.4141   -0.4553 C.3     1  UNL1        0.0029
     14 C          -3.4639   -0.4296   -0.1869 C.ar    1  UNL1        0.0366
     15 C           4.2259    0.5756    0.2341 C.3     1  UNL1       -0.0149
     16 C          -4.4615   -0.4475   -1.1618 C.ar    1  UNL1       -0.0400
     17 C          -3.5729   -1.2475    0.9377 C.ar    1  UNL1       -0.0400
     18 C           5.6504    0.0806    0.2306 C.ar    1  UNL1       -0.0462
     19 C          -5.5680   -1.2833   -1.0119 C.ar    1  UNL1       -0.0571
     20 C          -4.6795   -2.0832    1.0875 C.ar    1  UNL1       -0.0571
     21 C          -5.6770   -2.1013    0.1127 C.ar    1  UNL1       -0.0503
     22 C           6.1193   -0.7036    1.2846 C.ar    1  UNL1       -0.0585
     23 C           6.4989    0.4067   -0.8272 C.ar    1  UNL1       -0.0585
     24 C          -6.8602   -2.9955    0.2721 C.3     1  UNL1       -0.0397
     25 C           7.4369   -1.1617    1.2807 C.ar    1  UNL1       -0.0615
     26 C           7.8165   -0.0514   -0.8312 C.ar    1  UNL1       -0.0615
     27 C           8.2854   -0.8355    0.2229 C.ar    1  UNL1       -0.0617
     28 H          -4.5927    2.4622   -0.5135 H       1  UNL1        0.0394
     29 H          -4.4000    4.2771    1.1470 H       1  UNL1        0.0273
     30 H          -2.6461    3.8774    1.4207 H       1  UNL1        0.0273
     31 H          -3.2836    1.6025    2.1989 H       1  UNL1        0.0273
     32 H          -5.0403    1.9746    1.9058 H       1  UNL1        0.0273
     33 H          -1.1068   -1.2495   -0.1811 H       1  UNL1        0.0505
     34 H          -0.2045    1.1173   -1.8985 H       1  UNL1        0.0296
     35 H          -0.8159   -0.4292   -2.4535 H       1  UNL1        0.0296
     36 H          -0.1080    1.4718    0.8138 H       1  UNL1        0.0296
     37 H          -0.6417    0.1236    1.8027 H       1  UNL1        0.0296
     38 H           1.1273   -1.5926   -1.5002 H       1  UNL1        0.0427
     39 H           1.6499   -0.2562   -2.5325 H       1  UNL1        0.0427
     40 H           1.8084    0.2714    1.6472 H       1  UNL1        0.0427
     41 H           1.2205   -1.2690    1.0188 H       1  UNL1        0.0427
     42 H           3.6452   -0.5333   -1.4871 H       1  UNL1        0.0430
     43 H           3.3504   -1.4118   -0.0003 H       1  UNL1        0.0430
     44 H           3.9237    0.7592    1.2721 H       1  UNL1        0.0326
     45 H           4.1799    1.5528   -0.2650 H       1  UNL1        0.0326
     46 H          -4.3853    0.1792   -2.0466 H       1  UNL1        0.0636
     47 H          -2.8097   -1.2404    1.7109 H       1  UNL1        0.0636
     48 H          -6.3369   -1.2909   -1.7798 H       1  UNL1        0.0621
     49 H          -4.7532   -2.7157    1.9682 H       1  UNL1        0.0621
     50 H           5.4670   -0.9661    2.1133 H       1  UNL1        0.0620
     51 H           6.1447    1.0153   -1.6550 H       1  UNL1        0.0620
     52 H          -6.6606   -3.9682   -0.1884 H       1  UNL1        0.0278
     53 H          -7.0990   -3.1503    1.3298 H       1  UNL1        0.0278
     54 H          -7.7497   -2.5609   -0.1966 H       1  UNL1        0.0278
     55 H           7.8019   -1.7727    2.1010 H       1  UNL1        0.0618
     56 H           8.4772    0.2020   -1.6551 H       1  UNL1        0.0618
     57 H           9.3111   -1.1923    0.2196 H       1  UNL1        0.0618
@<TRIPOS>BOND
     1     1    10    2
     2     2     7    1
     3     2    10   am
     4     2    14    1
     5     3    11    1
     6     3    12    1
     7     3    13    1
     8     4     5    1
     9     4     6    1
    10     4    10    1
    11     4    28    1
    12     5     6    1
    13     5    29    1
    14     5    30    1
    15     6    31    1
    16     6    32    1
    17     7     8    1
    18     7     9    1
    19     7    33    1
    20     8    11    1
    21     8    34    1
    22     8    35    1
    23     9    12    1
    24     9    36    1
    25     9    37    1
    26    11    38    1
    27    11    39    1
    28    12    40    1
    29    12    41    1
    30    13    15    1
    31    13    42    1
    32    13    43    1
    33    14    16   ar
    34    14    17   ar
    35    15    18    1
    36    15    44    1
    37    15    45    1
    38    16    19   ar
    39    16    46    1
    40    17    20   ar
    41    17    47    1
    42    18    22   ar
    43    18    23   ar
    44    19    21   ar
    45    19    48    1
    46    20    21   ar
    47    20    49    1
    48    21    24    1
    49    22    25   ar
    50    22    50    1
    51    23    26   ar
    52    23    51    1
    53    24    52    1
    54    24    53    1
    55    24    54    1
    56    25    27   ar
    57    25    55    1
    58    26    27   ar
    59    26    56    1
    60    27    57    1
@<TRIPOS>MOLECULE
137699946
 56 58 0 0 0
SMALL
GASTEIGER

@<TRIPOS>ATOM
      1 F          -4.1730   -0.3414    2.1199 F       1  UNL1       -0.2035
      2 O          -1.9629    2.2962    0.9256 O.2     1  UNL1       -0.2750
      3 N           1.8204    0.1479   -0.3087 N.3     1  UNL1       -0.3019
      4 N          -2.4028    0.1706   -0.0031 N.am    1  UNL1       -0.2655
      5 C          -1.0644   -0.3280   -0.1994 C.3     1  UNL1        0.0335
      6 C          -0.3955    0.3613   -1.3884 C.3     1  UNL1       -0.0210
      7 C          -0.2186   -0.1454    1.0610 C.3     1  UNL1       -0.0210
      8 C           1.0590   -0.0861   -1.5435 C.3     1  UNL1        0.0006
      9 C           1.2298   -0.5771    0.8248 C.3     1  UNL1        0.0006
     10 C           3.2197   -0.2381   -0.4898 C.3     1  UNL1        0.0029
     11 C          -2.7044    1.5311    0.2996 C.2     1  UNL1        0.2227
     12 C           4.1284    0.5297    0.4709 C.3     1  UNL1       -0.0149
     13 C          -3.5135   -0.7717   -0.1212 C.ar    1  UNL1        0.0719
     14 C          -4.0632    2.0572   -0.1873 C.3     1  UNL1        0.0305
     15 C           5.5770    0.1571    0.2795 C.ar    1  UNL1       -0.0462
     16 C          -4.3636   -0.9910    0.9627 C.ar    1  UNL1        0.1447
     17 C          -3.7217   -1.4534   -1.3201 C.ar    1  UNL1       -0.0375
     18 C          -4.6368    3.0883    0.7899 C.3     1  UNL1       -0.0543
     19 C          -3.9064    2.6945   -1.5679 C.3     1  UNL1       -0.0543
     20 C          -5.4220   -1.8922    0.8476 C.ar    1  UNL1       -0.0246
     21 C          -4.7802   -2.3546   -1.4352 C.ar    1  UNL1       -0.0598
     22 C           6.1284   -0.8969    1.0080 C.ar    1  UNL1       -0.0585
     23 C           6.3655    0.8666   -0.6262 C.ar    1  UNL1       -0.0585
     24 C          -5.6304   -2.5739   -0.3514 C.ar    1  UNL1       -0.0589
     25 C           7.4686   -1.2413    0.8308 C.ar    1  UNL1       -0.0615
     26 C           7.7055    0.5222   -0.8034 C.ar    1  UNL1       -0.0615
     27 C           8.2570   -0.5316   -0.0748 C.ar    1  UNL1       -0.0617
     28 H          -1.1101   -1.4052   -0.4108 H       1  UNL1        0.0505
     29 H          -0.4202    1.4524   -1.2686 H       1  UNL1        0.0296
     30 H          -0.9459    0.1416   -2.3112 H       1  UNL1        0.0296
     31 H          -0.6467   -0.7297    1.8850 H       1  UNL1        0.0296
     32 H          -0.1991    0.8946    1.3995 H       1  UNL1        0.0296
     33 H           1.4991    0.4867   -2.3691 H       1  UNL1        0.0427
     34 H           1.0918   -1.1463   -1.8274 H       1  UNL1        0.0427
     35 H           1.2621   -1.6617    0.6553 H       1  UNL1        0.0427
     36 H           1.7875   -0.3793    1.7467 H       1  UNL1        0.0427
     37 H           3.3567   -1.3234   -0.3905 H       1  UNL1        0.0430
     38 H           3.5454    0.0114   -1.5093 H       1  UNL1        0.0430
     39 H           3.8560    0.3426    1.5164 H       1  UNL1        0.0326
     40 H           4.0090    1.6113    0.3227 H       1  UNL1        0.0326
     41 H          -4.8094    1.2680   -0.2764 H       1  UNL1        0.0389
     42 H          -3.0725   -1.2884   -2.1756 H       1  UNL1        0.0637
     43 H          -3.9945    3.9724    0.8689 H       1  UNL1        0.0237
     44 H          -4.7330    2.6562    1.7918 H       1  UNL1        0.0237
     45 H          -5.6292    3.4202    0.4671 H       1  UNL1        0.0237
     46 H          -3.1919    3.5248   -1.5439 H       1  UNL1        0.0237
     47 H          -4.8640    3.0764   -1.9365 H       1  UNL1        0.0237
     48 H          -3.5325    1.9618   -2.2913 H       1  UNL1        0.0237
     49 H          -6.0839   -2.0625    1.6915 H       1  UNL1        0.0647
     50 H          -4.9434   -2.8842   -2.3692 H       1  UNL1        0.0618
     51 H           5.5235   -1.4586    1.7150 H       1  UNL1        0.0620
     52 H           5.9468    1.6884   -1.2009 H       1  UNL1        0.0620
     53 H          -6.4548   -3.2752   -0.4411 H       1  UNL1        0.0618
     54 H           7.8979   -2.0622    1.3976 H       1  UNL1        0.0618
     55 H           8.3194    1.0743   -1.5090 H       1  UNL1        0.0618
     56 H           9.3003   -0.7998   -0.2129 H       1  UNL1        0.0618
@<TRIPOS>BOND
     1     1    16    1
     2     2    11    2
     3     3     8    1
     4     3     9    1
     5     3    10    1
     6     4     5    1
     7     4    11   am
     8     4    13    1
     9     5     6    1
    10     5     7    1
    11     5    28    1
    12     6     8    1
    13     6    29    1
    14     6    30    1
    15     7     9    1
    16     7    31    1
    17     7    32    1
    18     8    33    1
    19     8    34    1
    20     9    35    1
    21     9    36    1
    22    10    12    1
    23    10    37    1
    24    10    38    1
    25    11    14    1
    26    12    15    1
    27    12    39    1
    28    12    40    1
    29    13    16   ar
    30    13    17   ar
    31    14    18    1
    32    14    19    1
    33    14    41    1
    34    15    22   ar
    35    15    23   ar
    36    16    20   ar
    37    17    21   ar
    38    17    42    1
    39    18    43    1
    40    18    44    1
    41    18    45    1
    42    19    46    1
    43    19    47    1
    44    19    48    1
    45    20    24   ar
    46    20    49    1
    47    21    24   ar
    48    21    50    1
    49    22    25   ar
    50    22    51    1
    51    23    26   ar
    52    23    52    1
    53    24    53    1
    54    25    27   ar
    55    25    54    1
    56    26    27   ar
    57    26    55    1
    58    27    56    1
@<TRIPOS>MOLECULE
157010673
 52 54 0 0 0
SMALL
GASTEIGER

@<TRIPOS>ATOM
      1 O          -2.1299    2.4236    1.0004 O.2     1  UNL1       -0.2665
      2 O          -4.8963    2.6060    0.6691 O.2     1  UNL1       -0.2875
      3 N           1.6653    0.1902   -0.3122 N.3     1  UNL1       -0.3019
      4 N          -2.5483    0.2302    0.1124 N.am    1  UNL1       -0.2620
      5 C          -1.2135   -0.2739   -0.0932 C.3     1  UNL1        0.0338
      6 C          -0.5823    0.3495   -1.3378 C.3     1  UNL1       -0.0210
      7 C          -0.3344   -0.0182    1.1314 C.3     1  UNL1       -0.0210
      8 C           0.8678   -0.1108   -1.5090 C.3     1  UNL1        0.0006
      9 C           1.1069   -0.4673    0.8773 C.3     1  UNL1        0.0006
     10 C           3.0581   -0.2097   -0.5115 C.3     1  UNL1        0.0029
     11 C           3.9691    0.5469    0.4549 C.3     1  UNL1       -0.0149
     12 C          -3.6543   -0.7261    0.0781 C.ar    1  UNL1        0.0370
     13 C          -2.8080    1.5923    0.4087 C.2     1  UNL1        0.2862
     14 C           5.4153    0.1637    0.2666 C.ar    1  UNL1       -0.0462
     15 C          -4.7731   -0.5283    0.8873 C.ar    1  UNL1       -0.0403
     16 C          -3.5899   -1.8366   -0.7635 C.ar    1  UNL1       -0.0403
     17 C          -4.0971    2.1349   -0.1251 C.2     1  UNL1        0.2147
     18 C           5.9554   -0.8973    0.9932 C.ar    1  UNL1       -0.0585
     19 C           6.2130    0.8703   -0.6334 C.ar    1  UNL1       -0.0585
     20 C          -5.8275   -1.4409    0.8548 C.ar    1  UNL1       -0.0600
     21 C          -4.6443   -2.7492   -0.7959 C.ar    1  UNL1       -0.0600
     22 C          -5.7631   -2.5513    0.0132 C.ar    1  UNL1       -0.0616
     23 C          -4.3237    1.9838   -1.5985 C.3     1  UNL1        0.0032
     24 C           7.2932   -1.2519    0.8199 C.ar    1  UNL1       -0.0615
     25 C           7.5509    0.5157   -0.8069 C.ar    1  UNL1       -0.0615
     26 C           8.0910   -0.5454   -0.0802 C.ar    1  UNL1       -0.0617
     27 H          -1.2183   -1.3616   -0.2208 H       1  UNL1        0.0505
     28 H          -0.6039    1.4455   -1.2767 H       1  UNL1        0.0296
     29 H          -1.1602    0.0776   -2.2296 H       1  UNL1        0.0296
     30 H          -0.3036    1.0412    1.4035 H       1  UNL1        0.0296
     31 H          -0.7384   -0.5510    2.0012 H       1  UNL1        0.0296
     32 H           0.8907   -1.1854   -1.7336 H       1  UNL1        0.0427
     33 H           1.2851    0.4127   -2.3780 H       1  UNL1        0.0427
     34 H           1.6828   -0.2199    1.7748 H       1  UNL1        0.0427
     35 H           1.1339   -1.5599    0.7692 H       1  UNL1        0.0427
     36 H           3.1850   -1.2964   -0.4159 H       1  UNL1        0.0430
     37 H           3.3771    0.0458   -1.5314 H       1  UNL1        0.0430
     38 H           3.8592    1.6301    0.3102 H       1  UNL1        0.0326
     39 H           3.7024    0.3607    1.5014 H       1  UNL1        0.0326
     40 H          -4.8313    0.2825    1.6061 H       1  UNL1        0.0636
     41 H          -2.7601   -2.0051   -1.4431 H       1  UNL1        0.0636
     42 H           5.3434   -1.4567    1.6958 H       1  UNL1        0.0620
     43 H           5.8032    1.6977   -1.2065 H       1  UNL1        0.0620
     44 H          -6.6920   -1.2956    1.4961 H       1  UNL1        0.0618
     45 H          -4.5991   -3.6087   -1.4583 H       1  UNL1        0.0618
     46 H          -6.5835   -3.2626   -0.0111 H       1  UNL1        0.0618
     47 H          -4.8367    1.0455   -1.8163 H       1  UNL1        0.0311
     48 H          -3.3725    2.0237   -2.1364 H       1  UNL1        0.0311
     49 H          -4.9383    2.8184   -1.9482 H       1  UNL1        0.0311
     50 H           7.7137   -2.0784    1.3852 H       1  UNL1        0.0618
     51 H           8.1720    1.0654   -1.5080 H       1  UNL1        0.0618
     52 H           9.1326   -0.8217   -0.2153 H       1  UNL1        0.0618
@<TRIPOS>BOND
     1     1    13    2
     2     2    17    2
     3     3     8    1
     4     3     9    1
     5     3    10    1
     6     4     5    1
     7     4    12    1
     8     4    13   am
     9     5     6    1
    10     5     7    1
    11     5    27    1
    12     6     8    1
    13     6    28    1
    14     6    29    1
    15     7     9    1
    16     7    30    1
    17     7    31    1
    18     8    32    1
    19     8    33    1
    20     9    34    1
    21     9    35    1
    22    10    11    1
    23    10    36    1
    24    10    37    1
    25    11    14    1
    26    11    38    1
    27    11    39    1
    28    12    15   ar
    29    12    16   ar
    30    13    17    1
    31    14    18   ar
    32    14    19   ar
    33    15    20   ar
    34    15    40    1
    35    16    21   ar
    36    16    41    1
    37    17    23    1
    38    18    24   ar
    39    18    42    1
    40    19    25   ar
    41    19    43    1
    42    20    22   ar
    43    20    44    1
    44    21    22   ar
    45    21    45    1
    46    22    46    1
    47    23    47    1
    48    23    48    1
    49    23    49    1
    50    24    26   ar
    51    24    50    1
    52    25    26   ar
    53    25    51    1
    54    26    52    1
@<TRIPOS>MOLECULE
15358487
 59 61 0 0 0
SMALL
GASTEIGER

@<TRIPOS>ATOM
      1 O          -1.3381   -2.5705   -0.6591 O.3     1  UNL1       -0.4677
      2 O          -1.8543   -1.5282   -2.6550 O.2     1  UNL1       -0.2504
      3 O          -1.7710    2.4206   -1.3859 O.2     1  UNL1       -0.2753
      4 N           1.7398    0.1726   -0.1417 N.3     1  UNL1       -0.3011
      5 N          -2.4546    0.6796    0.0693 N.am    1  UNL1       -0.2675
      6 C          -1.1558    0.0927    0.3079 C.3     1  UNL1        0.0463
      7 C          -0.5164   -0.4044   -0.9954 C.3     1  UNL1        0.0880
      8 C          -0.2411    1.1084    0.9952 C.3     1  UNL1       -0.0203
      9 C           0.9247   -0.8790   -0.7646 C.3     1  UNL1        0.0136
     10 C           1.1799    0.5698    1.1565 C.3     1  UNL1        0.0006
     11 C           3.1231   -0.2771    0.0147 C.3     1  UNL1        0.0029
     12 C          -1.3155   -1.5444   -1.5566 C.2     1  UNL1        0.3130
     13 C           4.0835    0.9117    0.0616 C.3     1  UNL1       -0.0149
     14 C          -3.6186    0.0834    0.7209 C.ar    1  UNL1        0.0366
     15 C          -2.6533    1.8142   -0.7729 C.2     1  UNL1        0.2198
     16 C          -4.0940    2.3101   -0.8566 C.3     1  UNL1        0.0217
     17 C           5.5158    0.4610    0.2002 C.ar    1  UNL1       -0.0462
     18 C          -4.3304   -0.9327    0.0831 C.ar    1  UNL1       -0.0403
     19 C          -4.0178    0.5297    1.9807 C.ar    1  UNL1       -0.0403
     20 C          -4.2518    3.5103   -1.7779 C.3     1  UNL1       -0.0570
     21 C          -2.0712   -3.7295   -1.0685 C.3     1  UNL1        0.0817
     22 C           6.0734    0.2890    1.4673 C.ar    1  UNL1       -0.0585
     23 C           6.2831    0.2153   -0.9385 C.ar    1  UNL1       -0.0585
     24 C          -5.4415   -1.5023    0.7051 C.ar    1  UNL1       -0.0600
     25 C          -5.1289   -0.0401    2.6027 C.ar    1  UNL1       -0.0600
     26 C          -5.8406   -1.0560    1.9648 C.ar    1  UNL1       -0.0616
     27 C           7.3981   -0.1281    1.5956 C.ar    1  UNL1       -0.0615
     28 C           7.6079   -0.2021   -0.8100 C.ar    1  UNL1       -0.0615
     29 C           8.1654   -0.3738    0.4572 C.ar    1  UNL1       -0.0617
     30 H          -1.2827   -0.7487    1.0035 H       1  UNL1        0.0513
     31 H          -0.4933    0.3841   -1.7564 H       1  UNL1        0.0445
     32 H          -0.6470    1.3647    1.9820 H       1  UNL1        0.0296
     33 H          -0.1888    2.0499    0.4367 H       1  UNL1        0.0296
     34 H           0.9519   -1.7871   -0.1470 H       1  UNL1        0.0435
     35 H           1.3519   -1.1522   -1.7389 H       1  UNL1        0.0435
     36 H           1.1720   -0.2762    1.8567 H       1  UNL1        0.0427
     37 H           1.7819    1.3614    1.6156 H       1  UNL1        0.0427
     38 H           3.4143   -0.8919   -0.8485 H       1  UNL1        0.0430
     39 H           3.2419   -0.9235    0.8949 H       1  UNL1        0.0430
     40 H           3.8482    1.5851    0.8945 H       1  UNL1        0.0326
     41 H           3.9804    1.5184   -0.8480 H       1  UNL1        0.0326
     42 H          -4.7339    1.5089   -1.2386 H       1  UNL1        0.0356
     43 H          -4.4353    2.6021    0.1413 H       1  UNL1        0.0356
     44 H          -4.0492   -1.2731   -0.9077 H       1  UNL1        0.0636
     45 H          -3.4695    1.3203    2.4862 H       1  UNL1        0.0636
     46 H          -5.2985    3.8283   -1.8127 H       1  UNL1        0.0234
     47 H          -3.6497    4.3560   -1.4295 H       1  UNL1        0.0234
     48 H          -3.9343    3.2680   -2.7975 H       1  UNL1        0.0234
     49 H           5.4850    0.4751    2.3618 H       1  UNL1        0.0620
     50 H           5.8596    0.3438   -1.9310 H       1  UNL1        0.0620
     51 H          -3.0799   -3.4636   -1.3971 H       1  UNL1        0.0661
     52 H          -1.5309   -4.2440   -1.8685 H       1  UNL1        0.0661
     53 H          -2.1508   -4.4009   -0.2094 H       1  UNL1        0.0661
     54 H          -5.9992   -2.2893    0.2058 H       1  UNL1        0.0618
     55 H          -5.4399    0.3076    3.5835 H       1  UNL1        0.0618
     56 H          -6.7065   -1.4986    2.4485 H       1  UNL1        0.0618
     57 H           7.8321   -0.2624    2.5822 H       1  UNL1        0.0618
     58 H           8.2054   -0.3940   -1.6965 H       1  UNL1        0.0618
     59 H           9.1968   -0.6991    0.5571 H       1  UNL1        0.0618
@<TRIPOS>BOND
     1     1    12    1
     2     1    21    1
     3     2    12    2
     4     3    15    2
     5     4     9    1
     6     4    10    1
     7     4    11    1
     8     5     6    1
     9     5    14    1
    10     5    15   am
    11     6     7    1
    12     6     8    1
    13     6    30    1
    14     7     9    1
    15     7    12    1
    16     7    31    1
    17     8    10    1
    18     8    32    1
    19     8    33    1
    20     9    34    1
    21     9    35    1
    22    10    36    1
    23    10    37    1
    24    11    13    1
    25    11    38    1
    26    11    39    1
    27    13    17    1
    28    13    40    1
    29    13    41    1
    30    14    18   ar
    31    14    19   ar
    32    15    16    1
    33    16    20    1
    34    16    42    1
    35    16    43    1
    36    17    22   ar
    37    17    23   ar
    38    18    24   ar
    39    18    44    1
    40    19    25   ar
    41    19    45    1
    42    20    46    1
    43    20    47    1
    44    20    48    1
    45    21    51    1
    46    21    52    1
    47    21    53    1
    48    22    27   ar
    49    22    49    1
    50    23    28   ar
    51    23    50    1
    52    24    26   ar
    53    24    54    1
    54    25    26   ar
    55    25    55    1
    56    26    56    1
    57    27    29   ar
    58    27    57    1
    59    28    29   ar
    60    28    58    1
    61    29    59    1
@<TRIPOS>MOLECULE
27282486
 54 56 0 0 0
SMALL
GASTEIGER

@<TRIPOS>ATOM
      1 O          -1.4808    1.8118    0.4658 O.co2   1  UNL1       -0.7753
      2 O           2.5660    2.6655    0.3841 O.2     1  UNL1       -0.2753
      3 N          -1.4297    0.4416    0.5143 N.3     1  UNL1        0.2175
      4 N           2.8346    0.3225    0.1371 N.am    1  UNL1       -0.2680
      5 C           1.4703   -0.1248    0.2746 C.3     1  UNL1        0.0407
      6 C          -0.8259   -0.1078   -0.7626 C.3     1  UNL1       -0.0309
      7 C          -0.6033   -0.0120    1.7011 C.3     1  UNL1       -0.0309
      8 C           0.6317    0.3038   -0.9307 C.3     1  UNL1        0.0066
      9 C           0.8580    0.4011    1.5733 C.3     1  UNL1        0.0066
     10 C          -2.8355   -0.0729    0.6614 C.3     1  UNL1       -0.0286
     11 C          -3.7087    0.3466   -0.5129 C.3     1  UNL1        0.0126
     12 C           3.8773   -0.7007    0.0857 C.ar    1  UNL1        0.0366
     13 C           3.1915    1.6929   -0.0455 C.2     1  UNL1        0.2198
     14 C          -5.1498   -0.0720   -0.3571 C.ar    1  UNL1       -0.0423
     15 C           4.4931    1.9221   -0.8085 C.3     1  UNL1        0.0217
     16 C           4.9373   -0.6623    0.9915 C.ar    1  UNL1       -0.0403
     17 C           3.8125   -1.7152   -0.8693 C.ar    1  UNL1       -0.0403
     18 C          -5.5720   -1.3107   -0.8397 C.ar    1  UNL1       -0.0584
     19 C          -6.0598    0.7793    0.2695 C.ar    1  UNL1       -0.0584
     20 C           4.4959    3.2267   -1.5909 C.3     1  UNL1       -0.0570
     21 C           5.9327   -1.6384    0.9422 C.ar    1  UNL1       -0.0600
     22 C           4.8075   -2.6913   -0.9187 C.ar    1  UNL1       -0.0600
     23 C          -6.9043   -1.6982   -0.6958 C.ar    1  UNL1       -0.0615
     24 C          -7.3920    0.3920    0.4134 C.ar    1  UNL1       -0.0615
     25 C           5.8677   -2.6529   -0.0129 C.ar    1  UNL1       -0.0616
     26 C          -7.8143   -0.8467   -0.0693 C.ar    1  UNL1       -0.0617
     27 H           1.4513   -1.2217    0.3306 H       1  UNL1        0.0508
     28 H          -1.3863    0.3037   -1.6052 H       1  UNL1        0.0814
     29 H          -0.9357   -1.1974   -0.7283 H       1  UNL1        0.0814
     30 H          -0.7011   -1.1025    1.7545 H       1  UNL1        0.0814
     31 H          -1.0608    0.4381    2.5891 H       1  UNL1        0.0814
     32 H           1.0325   -0.1439   -1.8480 H       1  UNL1        0.0335
     33 H           0.6820    1.3904   -1.0718 H       1  UNL1        0.0335
     34 H           0.9130    1.4923    1.6324 H       1  UNL1        0.0335
     35 H           1.4208    0.0180    2.4334 H       1  UNL1        0.0335
     36 H          -3.2145    0.3385    1.6050 H       1  UNL1        0.0817
     37 H          -2.7757   -1.1641    0.7501 H       1  UNL1        0.0817
     38 H          -3.6722    1.4322   -0.6682 H       1  UNL1        0.0365
     39 H          -3.3563   -0.0919   -1.4526 H       1  UNL1        0.0365
     40 H           4.6634    1.1153   -1.5280 H       1  UNL1        0.0356
     41 H           5.3195    1.9325   -0.0905 H       1  UNL1        0.0356
     42 H           4.9956    0.1167    1.7472 H       1  UNL1        0.0636
     43 H           2.9996   -1.7557   -1.5891 H       1  UNL1        0.0636
     44 H          -4.8723   -1.9842   -1.3274 H       1  UNL1        0.0620
     45 H          -5.7421    1.7459    0.6513 H       1  UNL1        0.0620
     46 H           4.4056    4.0883   -0.9213 H       1  UNL1        0.0234
     47 H           3.6584    3.2608   -2.2955 H       1  UNL1        0.0234
     48 H           5.4273    3.3314   -2.1557 H       1  UNL1        0.0234
     49 H           6.7570   -1.6097    1.6487 H       1  UNL1        0.0618
     50 H           4.7582   -3.4801   -1.6636 H       1  UNL1        0.0618
     51 H          -7.2330   -2.6630   -1.0710 H       1  UNL1        0.0618
     52 H          -8.1006    1.0546    0.9018 H       1  UNL1        0.0618
     53 H           6.6425   -3.4129   -0.0514 H       1  UNL1        0.0618
     54 H          -8.8516   -1.1484    0.0431 H       1  UNL1        0.0618
@<TRIPOS>UNITY_ATOM_ATTR
1 1
charge -1
3 1
charge 1
@<TRIPOS>BOND
     1     1     3    1
     2     2    13    2
     3     3     6    1
     4     3     7    1
     5     3    10    1
     6     4     5    1
     7     4    12    1
     8     4    13   am
     9     5     8    1
    10     5     9    1
    11     5    27    1
    12     6     8    1
    13     6    28    1
    14     6    29    1
    15     7     9    1
    16     7    30    1
    17     7    31    1
    18     8    32    1
    19     8    33    1
    20     9    34    1
    21     9    35    1
    22    10    11    1
    23    10    36    1
    24    10    37    1
    25    11    14    1
    26    11    38    1
    27    11    39    1
    28    12    16   ar
    29    12    17   ar
    30    13    15    1
    31    14    18   ar
    32    14    19   ar
    33    15    20    1
    34    15    40    1
    35    15    41    1
    36    16    21   ar
    37    16    42    1
    38    17    22   ar
    39    17    43    1
    40    18    23   ar
    41    18    44    1
    42    19    24   ar
    43    19    45    1
    44    20    46    1
    45    20    47    1
    46    20    48    1
    47    21    25   ar
    48    21    49    1
    49    22    25   ar
    50    22    50    1
    51    23    26   ar
    52    23    51    1
    53    24    26   ar
    54    24    52    1
    55    25    53    1
    56    26    54    1
@<TRIPOS>MOLECULE
10472960
 54 56 0 0 0
SMALL
GASTEIGER

@<TRIPOS>ATOM
      1 O          -3.5042   -2.7896   -0.0512 O.2     1  UNL1       -0.2703
      2 N           1.5818   -0.3821   -0.4694 N.3     1  UNL1       -0.3019
      3 N          -2.6110   -0.5952    0.0827 N.am    1  UNL1       -0.2648
      4 C          -1.2174   -0.9566    0.1592 C.3     1  UNL1        0.0337
      5 C          -0.6336   -1.1728   -1.2367 C.3     1  UNL1       -0.0210
      6 C          -0.4135    0.1062    0.9089 C.3     1  UNL1       -0.0210
      7 C           0.8682   -1.4569   -1.1729 C.3     1  UNL1        0.0006
      8 C           1.0807   -0.2212    0.9026 C.3     1  UNL1        0.0006
      9 C           3.0209   -0.6440   -0.4610 C.3     1  UNL1        0.0029
     10 C           3.7876    0.5292    0.1507 C.3     1  UNL1       -0.0149
     11 C          -2.9502    0.8294    0.0234 C.ar    1  UNL1        0.0369
     12 C          -3.6471   -1.5671   -0.0175 C.2     1  UNL1        0.2436
     13 C           5.2750    0.2816    0.1450 C.ar    1  UNL1       -0.0462
     14 C          -3.2285    1.4569    1.1988 C.ar    1  UNL1       -0.0403
     15 C          -2.9616    1.4211   -1.2022 C.ar    1  UNL1       -0.0403
     16 C          -5.0271   -1.0010   -0.0900 C.2     1  UNL1       -0.0035
     17 C           5.8651   -0.3457    1.2320 C.ar    1  UNL1       -0.0585
     18 C           6.0284    0.6845   -0.9474 C.ar    1  UNL1       -0.0585
     19 C          -3.5510    2.8129    1.1427 C.ar    1  UNL1       -0.0600
     20 C          -3.2840    2.7770   -1.2582 C.ar    1  UNL1       -0.0600
     21 C          -3.5787    3.4729   -0.0857 C.ar    1  UNL1       -0.0616
     22 C          -6.0720   -1.7142    0.3516 C.2     1  UNL1       -0.0822
     23 C           7.2409   -0.5751    1.2268 C.ar    1  UNL1       -0.0615
     24 C           7.4043    0.4550   -0.9525 C.ar    1  UNL1       -0.0615
     25 C           8.0105   -0.1749    0.1345 C.ar    1  UNL1       -0.0617
     26 C          -7.4834   -1.2304    0.2861 C.3     1  UNL1       -0.0464
     27 H          -1.1498   -1.9051    0.7083 H       1  UNL1        0.0505
     28 H          -1.1425   -2.0064   -1.7357 H       1  UNL1        0.0296
     29 H          -0.7917   -0.2919   -1.8693 H       1  UNL1        0.0296
     30 H          -0.5133    1.1006    0.4569 H       1  UNL1        0.0296
     31 H          -0.7549    0.1811    1.9486 H       1  UNL1        0.0296
     32 H           1.0387   -2.4251   -0.6838 H       1  UNL1        0.0427
     33 H           1.2420   -1.5416   -2.2006 H       1  UNL1        0.0427
     34 H           1.5565    0.6158    1.4197 H       1  UNL1        0.0427
     35 H           1.2642   -1.1255    1.4976 H       1  UNL1        0.0427
     36 H           3.2489   -1.5720    0.0809 H       1  UNL1        0.0430
     37 H           3.3701   -0.7881   -1.4921 H       1  UNL1        0.0430
     38 H           3.5671    1.4562   -0.3953 H       1  UNL1        0.0326
     39 H           3.5111    0.7210    1.1921 H       1  UNL1        0.0326
     40 H          -3.2120    0.9429    2.1539 H       1  UNL1        0.0636
     41 H          -2.7504    0.8816   -2.1185 H       1  UNL1        0.0636
     42 H          -5.2070   -0.0347   -0.5429 H       1  UNL1        0.0666
     43 H           5.2745   -0.6639    2.0864 H       1  UNL1        0.0620
     44 H           5.5652    1.1740   -1.7994 H       1  UNL1        0.0620
     45 H          -3.7820    3.3543    2.0555 H       1  UNL1        0.0618
     46 H          -3.3096    3.2901   -2.2152 H       1  UNL1        0.0618
     47 H          -3.8311    4.5282   -0.1296 H       1  UNL1        0.0618
     48 H          -5.9232   -2.6955    0.7944 H       1  UNL1        0.0571
     49 H           7.7129   -1.0662    2.0728 H       1  UNL1        0.0618
     50 H           8.0037    0.7661   -1.8032 H       1  UNL1        0.0618
     51 H           9.0817   -0.3539    0.1302 H       1  UNL1        0.0618
     52 H          -8.0865   -1.9215   -0.3106 H       1  UNL1        0.0272
     53 H          -7.5623   -0.2348   -0.1620 H       1  UNL1        0.0272
     54 H          -7.9083   -1.1849    1.2936 H       1  UNL1        0.0272
@<TRIPOS>BOND
     1     1    12    2
     2     2     7    1
     3     2     8    1
     4     2     9    1
     5     3     4    1
     6     3    11    1
     7     3    12   am
     8     4     5    1
     9     4     6    1
    10     4    27    1
    11     5     7    1
    12     5    28    1
    13     5    29    1
    14     6     8    1
    15     6    30    1
    16     6    31    1
    17     7    32    1
    18     7    33    1
    19     8    34    1
    20     8    35    1
    21     9    10    1
    22     9    36    1
    23     9    37    1
    24    10    13    1
    25    10    38    1
    26    10    39    1
    27    11    14   ar
    28    11    15   ar
    29    12    16    1
    30    13    17   ar
    31    13    18   ar
    32    14    19   ar
    33    14    40    1
    34    15    20   ar
    35    15    41    1
    36    16    22    2
    37    16    42    1
    38    17    23   ar
    39    17    43    1
    40    18    24   ar
    41    18    44    1
    42    19    21   ar
    43    19    45    1
    44    20    21   ar
    45    20    46    1
    46    21    47    1
    47    22    26    1
    48    22    48    1
    49    23    25   ar
    50    23    49    1
    51    24    25   ar
    52    24    50    1
    53    25    51    1
    54    26    52    1
    55    26    53    1
    56    26    54    1
@<TRIPOS>MOLECULE
139597319
 57 60 0 0 0
SMALL
GASTEIGER

@<TRIPOS>ATOM
      1 O          -1.9978    1.9689   -1.4171 O.2     1  UNL1       -0.2749
      2 N          -2.4016   -0.1107   -0.3560 N.am    1  UNL1       -0.2681
      3 N           1.8314   -0.1056   -0.4607 N.3     1  UNL1       -0.3019
      4 C          -3.9588    1.8406   -0.0571 C.3     1  UNL1        0.0361
      5 C          -1.0467   -0.5944   -0.2641 C.3     1  UNL1        0.0334
      6 C          -4.1688    3.3724   -0.1804 C.3     1  UNL1       -0.0419
      7 C          -3.9642    2.0562    1.4792 C.3     1  UNL1       -0.0419
      8 C          -4.7821    3.3379    1.2321 C.3     1  UNL1       -0.0517
      9 C          -0.2688    0.1503    0.8213 C.3     1  UNL1       -0.0210
     10 C          -0.3305   -0.4668   -1.6084 C.3     1  UNL1       -0.0210
     11 C          -2.6995    1.2461   -0.6934 C.2     1  UNL1        0.2231
     12 C           1.1969   -0.2866    0.8523 C.3     1  UNL1        0.0006
     13 C           1.1375   -0.8822   -1.4974 C.3     1  UNL1        0.0006
     14 C           3.2445   -0.4791   -0.4019 C.3     1  UNL1        0.0029
     15 C          -3.5008   -1.0328   -0.0974 C.ar    1  UNL1        0.0366
     16 C           4.0901    0.6637    0.1609 C.3     1  UNL1       -0.0149
     17 C          -4.4461   -1.2873   -1.0909 C.ar    1  UNL1       -0.0403
     18 C          -3.6074   -1.6603    1.1437 C.ar    1  UNL1       -0.0403
     19 C           5.5528    0.2996    0.2064 C.ar    1  UNL1       -0.0462
     20 C          -5.4981   -2.1693   -0.8434 C.ar    1  UNL1       -0.0600
     21 C          -4.6592   -2.5424    1.3913 C.ar    1  UNL1       -0.0600
     22 C          -5.6046   -2.7968    0.3977 C.ar    1  UNL1       -0.0616
     23 C           6.0848   -0.3107    1.3423 C.ar    1  UNL1       -0.0585
     24 C           6.3737    0.5732   -0.8875 C.ar    1  UNL1       -0.0585
     25 C           7.4379   -0.6472    1.3842 C.ar    1  UNL1       -0.0615
     26 C           7.7266    0.2367   -0.8457 C.ar    1  UNL1       -0.0615
     27 C           8.2587   -0.3735    0.2902 C.ar    1  UNL1       -0.0617
     28 H          -4.8676    1.3275   -0.4024 H       1  UNL1        0.0394
     29 H          -1.0663   -1.6607    0.0000 H       1  UNL1        0.0505
     30 H          -4.8444    3.6961   -0.9768 H       1  UNL1        0.0272
     31 H          -3.2466    3.9627   -0.2368 H       1  UNL1        0.0272
     32 H          -4.4717    1.2876    2.0676 H       1  UNL1        0.0272
     33 H          -2.9734    2.2390    1.9116 H       1  UNL1        0.0272
     34 H          -4.5429    4.1871    1.8767 H       1  UNL1        0.0266
     35 H          -5.8662    3.1767    1.2383 H       1  UNL1        0.0266
     36 H          -0.7253   -0.0302    1.8021 H       1  UNL1        0.0296
     37 H          -0.3113    1.2350    0.6579 H       1  UNL1        0.0296
     38 H          -0.3454    0.5536   -1.9996 H       1  UNL1        0.0296
     39 H          -0.8322   -1.0907   -2.3585 H       1  UNL1        0.0296
     40 H           1.7032    0.3148    1.6151 H       1  UNL1        0.0427
     41 H           1.2566   -1.3346    1.1752 H       1  UNL1        0.0427
     42 H           1.2025   -1.9581   -1.2876 H       1  UNL1        0.0427
     43 H           1.6096   -0.7118   -2.4729 H       1  UNL1        0.0427
     44 H           3.6170   -0.6862   -1.4149 H       1  UNL1        0.0430
     45 H           3.3950   -1.4070    0.1663 H       1  UNL1        0.0430
     46 H           3.7686    0.9403    1.1720 H       1  UNL1        0.0326
     47 H           3.9598    1.5677   -0.4490 H       1  UNL1        0.0326
     48 H          -4.3716   -0.8094   -2.0643 H       1  UNL1        0.0636
     49 H          -2.8826   -1.4671    1.9299 H       1  UNL1        0.0636
     50 H          -6.2336   -2.3683   -1.6174 H       1  UNL1        0.0618
     51 H          -4.7431   -3.0298    2.3582 H       1  UNL1        0.0618
     52 H          -6.4237   -3.4834    0.5906 H       1  UNL1        0.0618
     53 H           5.4548   -0.5308    2.2000 H       1  UNL1        0.0620
     54 H           5.9704    1.0466   -1.7788 H       1  UNL1        0.0620
     55 H           7.8522   -1.1228    2.2683 H       1  UNL1        0.0618
     56 H           8.3658    0.4492   -1.6977 H       1  UNL1        0.0618
     57 H           9.3122   -0.6357    0.3226 H       1  UNL1        0.0618
@<TRIPOS>BOND
     1     1    11    2
     2     2     5    1
     3     2    11   am
     4     2    15    1
     5     3    12    1
     6     3    13    1
     7     3    14    1
     8     4     6    1
     9     4     7    1
    10     4    11    1
    11     4    28    1
    12     5     9    1
    13     5    10    1
    14     5    29    1
    15     6     8    1
    16     6    30    1
    17     6    31    1
    18     7     8    1
    19     7    32    1
    20     7    33    1
    21     8    34    1
    22     8    35    1
    23     9    12    1
    24     9    36    1
    25     9    37    1
    26    10    13    1
    27    10    38    1
    28    10    39    1
    29    12    40    1
    30    12    41    1
    31    13    42    1
    32    13    43    1
    33    14    16    1
    34    14    44    1
    35    14    45    1
    36    15    17   ar
    37    15    18   ar
    38    16    19    1
    39    16    46    1
    40    16    47    1
    41    17    20   ar
    42    17    48    1
    43    18    21   ar
    44    18    49    1
    45    19    23   ar
    46    19    24   ar
    47    20    22   ar
    48    20    50    1
    49    21    22   ar
    50    21    51    1
    51    22    52    1
    52    23    25   ar
    53    23    53    1
    54    24    26   ar
    55    24    54    1
    56    25    27   ar
    57    25    55    1
    58    26    27   ar
    59    26    56    1
    60    27    57    1
@<TRIPOS>MOLECULE
154113448
 38 39 0 0 0
SMALL
GASTEIGER

@<TRIPOS>ATOM
      1 O          -0.9486   -2.2004    0.9125 O.2     1  UNL1       -0.2724
      2 O           1.0873   -3.6364    0.2139 O.3     1  UNL1       -0.3828
      3 N          -0.0980   -0.1232    0.1672 N.am    1  UNL1       -0.2662
      4 N          -4.2272    0.7646   -0.1049 N.3     1  UNL1       -0.3159
      5 C          -1.3120    0.6407    0.0244 C.3     1  UNL1        0.0335
      6 C          -2.0905    0.1995   -1.2160 C.3     1  UNL1       -0.0213
      7 C          -2.1880    0.5202    1.2729 C.3     1  UNL1       -0.0213
      8 C          -3.4254    0.9377   -1.3164 C.3     1  UNL1       -0.0024
      9 C          -3.5184    1.2483    1.0802 C.3     1  UNL1       -0.0024
     10 C           1.1779    0.5924    0.1219 C.ar    1  UNL1        0.0366
     11 C          -0.0706   -1.5371    0.3502 C.2     1  UNL1        0.2484
     12 C           1.1704   -2.2669   -0.1691 C.3     1  UNL1        0.1286
     13 C           2.0431    0.5458    1.2149 C.ar    1  UNL1       -0.0403
     14 C           1.5282    1.3216   -1.0142 C.ar    1  UNL1       -0.0403
     15 C           1.2602   -2.1974   -1.6873 C.3     1  UNL1       -0.0303
     16 C           3.2588    1.2284    1.1718 C.ar    1  UNL1       -0.0600
     17 C           2.7438    2.0043   -1.0575 C.ar    1  UNL1       -0.0600
     18 C           3.6091    1.9577    0.0356 C.ar    1  UNL1       -0.0616
     19 H          -1.0549    1.7024   -0.0944 H       1  UNL1        0.0505
     20 H          -1.4994    0.3869   -2.1205 H       1  UNL1        0.0296
     21 H          -2.2813   -0.8813   -1.1913 H       1  UNL1        0.0296
     22 H          -1.6623    0.9378    2.1404 H       1  UNL1        0.0296
     23 H          -2.4140   -0.5209    1.5211 H       1  UNL1        0.0296
     24 H          -3.2576    2.0054   -1.5028 H       1  UNL1        0.0425
     25 H          -3.9902    0.5552   -2.1736 H       1  UNL1        0.0425
     26 H          -4.1512    1.0931    1.9610 H       1  UNL1        0.0425
     27 H          -3.3534    2.3296    1.0002 H       1  UNL1        0.0425
     28 H          -4.4329   -0.2275    0.0157 H       1  UNL1        0.1219
     29 H           2.0826   -1.8848    0.2891 H       1  UNL1        0.0687
     30 H           1.7791   -0.0117    2.1100 H       1  UNL1        0.0636
     31 H           0.8669    1.3653   -1.8754 H       1  UNL1        0.0636
     32 H           0.3377   -2.5711   -2.1470 H       1  UNL1        0.0259
     33 H           2.0721   -2.8377   -2.0493 H       1  UNL1        0.0259
     34 H           1.4304   -1.1883   -2.0632 H       1  UNL1        0.0259
     35 H           3.9317    1.1936    2.0235 H       1  UNL1        0.0618
     36 H           3.0170    2.5714   -1.9425 H       1  UNL1        0.0618
     37 H           4.5555    2.4894    0.0020 H       1  UNL1        0.0618
     38 H           0.3315   -4.0333   -0.2522 H       1  UNL1        0.2104
@<TRIPOS>BOND
     1     1    11    2
     2     2    12    1
     3     2    38    1
     4     3     5    1
     5     3    10    1
     6     3    11   am
     7     4     8    1
     8     4     9    1
     9     4    28    1
    10     5     6    1
    11     5     7    1
    12     5    19    1
    13     6     8    1
    14     6    20    1
    15     6    21    1
    16     7     9    1
    17     7    22    1
    18     7    23    1
    19     8    24    1
    20     8    25    1
    21     9    26    1
    22     9    27    1
    23    10    13   ar
    24    10    14   ar
    25    11    12    1
    26    12    15    1
    27    12    29    1
    28    13    16   ar
    29    13    30    1
    30    14    17   ar
    31    14    31    1
    32    15    32    1
    33    15    33    1
    34    15    34    1
    35    16    18   ar
    36    16    35    1
    37    17    18   ar
    38    17    36    1
    39    18    37    1
@<TRIPOS>MOLECULE
165365067
 65 67 0 0 0
SMALL
GASTEIGER

@<TRIPOS>ATOM
      1 S           8.1446   -0.5948    0.1314 S.3     1  UNL1       -0.1249
      2 O          -3.8531    2.2923   -1.4193 O.2     1  UNL1       -0.2753
      3 O           3.3822   -1.9818   -1.1349 O.3     1  UNL1       -0.4948
      4 O           6.7407    2.1080    0.4200 O.3     1  UNL1       -0.4940
      5 N          -0.0127    0.4703    0.1095 N.3     1  UNL1       -0.3019
      6 N          -4.2368    0.3211   -0.1578 N.am    1  UNL1       -0.2683
      7 C          -2.8849   -0.0777    0.1446 C.3     1  UNL1        0.0334
      8 C          -2.2299    0.8971    1.1236 C.3     1  UNL1       -0.0210
      9 C          -2.0514   -0.1865   -1.1320 C.3     1  UNL1       -0.0210
     10 C          -0.7649    0.5275    1.3705 C.3     1  UNL1        0.0006
     11 C          -0.5920   -0.5186   -0.8100 C.3     1  UNL1        0.0006
     12 C           1.3949    0.1669    0.3667 C.3     1  UNL1        0.0030
     13 C           2.2590    0.6332   -0.8045 C.3     1  UNL1       -0.0113
     14 C          -5.3094   -0.6060    0.1995 C.ar    1  UNL1        0.0366
     15 C          -4.5716    1.6027   -0.6914 C.2     1  UNL1        0.2198
     16 C           3.7169    0.3244   -0.5738 C.ar    1  UNL1       -0.0010
     17 C          -5.9700    2.1007   -0.3376 C.3     1  UNL1        0.0217
     18 C          -6.2100   -1.0386   -0.7736 C.ar    1  UNL1       -0.0403
     19 C          -5.4319   -1.0578    1.5135 C.ar    1  UNL1       -0.0403
     20 C           4.2084   -0.9690   -0.7500 C.ar    1  UNL1        0.1246
     21 C           4.5769    1.3497   -0.1804 C.ar    1  UNL1       -0.0122
     22 C          -6.0540    3.6178   -0.2619 C.3     1  UNL1       -0.0570
     23 C          -7.2333   -1.9232   -0.4328 C.ar    1  UNL1       -0.0600
     24 C          -6.4552   -1.9424    1.8542 C.ar    1  UNL1       -0.0600
     25 C           5.9283    1.0816    0.0370 C.ar    1  UNL1        0.1339
     26 C           5.5598   -1.2371   -0.5328 C.ar    1  UNL1       -0.0028
     27 C          -7.3559   -2.3750    0.8811 C.ar    1  UNL1       -0.0616
     28 C           6.4198   -0.2118   -0.1393 C.ar    1  UNL1        0.0528
     29 C           3.9687   -3.2724   -1.2911 C.3     1  UNL1        0.0788
     30 C           6.8791    2.3347    1.8207 C.3     1  UNL1        0.0788
     31 C           8.0379   -1.8353    1.4509 C.3     1  UNL1       -0.0133
     32 H          -2.8941   -1.0733    0.6090 H       1  UNL1        0.0505
     33 H          -2.7723    0.8978    2.0768 H       1  UNL1        0.0296
     34 H          -2.2738    1.9257    0.7433 H       1  UNL1        0.0296
     35 H          -2.4686   -0.9632   -1.7849 H       1  UNL1        0.0296
     36 H          -2.0684    0.7430   -1.7107 H       1  UNL1        0.0296
     37 H          -0.3331    1.2908    2.0294 H       1  UNL1        0.0427
     38 H          -0.7099   -0.4316    1.9022 H       1  UNL1        0.0427
     39 H          -0.5351   -1.5292   -0.3836 H       1  UNL1        0.0427
     40 H          -0.0491   -0.5411   -1.7604 H       1  UNL1        0.0427
     41 H           1.5406   -0.8982    0.5886 H       1  UNL1        0.0430
     42 H           1.7379    0.7105    1.2581 H       1  UNL1        0.0430
     43 H           1.9617    0.1676   -1.7510 H       1  UNL1        0.0327
     44 H           2.1270    1.7130   -0.9567 H       1  UNL1        0.0327
     45 H          -6.2807    1.7126    0.6372 H       1  UNL1        0.0356
     46 H          -6.6699    1.7403   -1.0985 H       1  UNL1        0.0356
     47 H          -6.1206   -0.7026   -1.8034 H       1  UNL1        0.0636
     48 H          -4.7456   -0.7240    2.2869 H       1  UNL1        0.0636
     49 H           4.2002    2.3601   -0.0399 H       1  UNL1        0.0658
     50 H          -5.3395    4.0119    0.4683 H       1  UNL1        0.0234
     51 H          -5.8285    4.0740   -1.2313 H       1  UNL1        0.0234
     52 H          -7.0598    3.9303    0.0351 H       1  UNL1        0.0234
     53 H          -7.9335   -2.2617   -1.1909 H       1  UNL1        0.0618
     54 H          -6.5520   -2.2926    2.8777 H       1  UNL1        0.0618
     55 H           5.9902   -2.2234   -0.6686 H       1  UNL1        0.0666
     56 H          -8.1527   -3.0636    1.1464 H       1  UNL1        0.0618
     57 H           3.1674   -3.9539   -1.5959 H       1  UNL1        0.0660
     58 H           4.7146   -3.2834   -2.0932 H       1  UNL1        0.0660
     59 H           4.3647   -3.6546   -0.3440 H       1  UNL1        0.0660
     60 H           7.6483    3.0975    1.9695 H       1  UNL1        0.0660
     61 H           5.9366    2.7045    2.2367 H       1  UNL1        0.0660
     62 H           7.1842    1.4243    2.3455 H       1  UNL1        0.0660
     63 H           9.0469   -2.0783    1.7946 H       1  UNL1        0.0344
     64 H           7.4666   -1.4434    2.2968 H       1  UNL1        0.0344
     65 H           7.5674   -2.7523    1.0873 H       1  UNL1        0.0344
@<TRIPOS>BOND
     1     1    28    1
     2     1    31    1
     3     2    15    2
     4     3    20    1
     5     3    29    1
     6     4    25    1
     7     4    30    1
     8     5    10    1
     9     5    11    1
    10     5    12    1
    11     6     7    1
    12     6    14    1
    13     6    15   am
    14     7     8    1
    15     7     9    1
    16     7    32    1
    17     8    10    1
    18     8    33    1
    19     8    34    1
    20     9    11    1
    21     9    35    1
    22     9    36    1
    23    10    37    1
    24    10    38    1
    25    11    39    1
    26    11    40    1
    27    12    13    1
    28    12    41    1
    29    12    42    1
    30    13    16    1
    31    13    43    1
    32    13    44    1
    33    14    18   ar
    34    14    19   ar
    35    15    17    1
    36    16    20   ar
    37    16    21   ar
    38    17    22    1
    39    17    45    1
    40    17    46    1
    41    18    23   ar
    42    18    47    1
    43    19    24   ar
    44    19    48    1
    45    20    26   ar
    46    21    25   ar
    47    21    49    1
    48    22    50    1
    49    22    51    1
    50    22    52    1
    51    23    27   ar
    52    23    53    1
    53    24    27   ar
    54    24    54    1
    55    25    28   ar
    56    26    28   ar
    57    26    55    1
    58    27    56    1
    59    29    57    1
    60    29    58    1
    61    29    59    1
    62    30    60    1
    63    30    61    1
    64    30    62    1
    65    31    63    1
    66    31    64    1
    67    31    65    1
@<TRIPOS>MOLECULE
100974914
 56 58 0 0 0
SMALL
GASTEIGER

@<TRIPOS>ATOM
      1 F          -6.6976   -3.0503   -0.1172 F       1  UNL1       -0.2055
      2 O          -1.7469    2.5203    0.9737 O.2     1  UNL1       -0.2750
      3 N           1.9168    0.1738   -0.2603 N.3     1  UNL1       -0.3019
      4 N          -2.2944    0.3854    0.1272 N.am    1  UNL1       -0.2681
      5 C          -0.9824   -0.1757   -0.0781 C.3     1  UNL1        0.0334
      6 C          -0.3106    0.4445   -1.3029 C.3     1  UNL1       -0.0210
      7 C          -0.1033    0.0130    1.1585 C.3     1  UNL1       -0.0210
      8 C           1.1205   -0.0690   -1.4712 C.3     1  UNL1        0.0006
      9 C           1.3205   -0.4873    0.9088 C.3     1  UNL1        0.0006
     10 C           3.2947   -0.2770   -0.4554 C.3     1  UNL1        0.0029
     11 C          -2.5326    1.7668    0.3890 C.2     1  UNL1        0.2226
     12 C           4.2546    0.4833    0.4603 C.3     1  UNL1       -0.0149
     13 C          -3.4456   -0.5125    0.0633 C.ar    1  UNL1        0.0367
     14 C          -3.8783    2.3333   -0.0890 C.3     1  UNL1        0.0305
     15 C           5.6821    0.0436    0.2534 C.ar    1  UNL1       -0.0462
     16 C          -3.7093   -1.2262   -1.1057 C.ar    1  UNL1       -0.0376
     17 C          -4.2804   -0.6562    1.1717 C.ar    1  UNL1       -0.0376
     18 C          -4.3878    3.4199    0.8634 C.3     1  UNL1       -0.0543
     19 C          -3.7243    2.9169   -1.4934 C.3     1  UNL1       -0.0543
     20 C          -4.8076   -2.0837   -1.1665 C.ar    1  UNL1       -0.0247
     21 C          -5.3788   -1.5138    1.1109 C.ar    1  UNL1       -0.0247
     22 C           6.2043   -1.0079    1.0066 C.ar    1  UNL1       -0.0585
     23 C           6.4802    0.6884   -0.6914 C.ar    1  UNL1       -0.0585
     24 C          -5.6423   -2.2276   -0.0583 C.ar    1  UNL1        0.1235
     25 C           7.5250   -1.4143    0.8151 C.ar    1  UNL1       -0.0615
     26 C           7.8006    0.2819   -0.8830 C.ar    1  UNL1       -0.0615
     27 C           8.3230   -0.7694   -0.1296 C.ar    1  UNL1       -0.0617
     28 H          -1.0774   -1.2565   -0.2516 H       1  UNL1        0.0505
     29 H          -0.2872    1.5391   -1.2202 H       1  UNL1        0.0296
     30 H          -0.8889    0.2175   -2.2067 H       1  UNL1        0.0296
     31 H          -0.5378   -0.5249    2.0102 H       1  UNL1        0.0296
     32 H          -0.0334    1.0620    1.4607 H       1  UNL1        0.0296
     33 H           1.5666    0.4567   -2.3244 H       1  UNL1        0.0427
     34 H           1.1032   -1.1385   -1.7192 H       1  UNL1        0.0427
     35 H           1.3040   -1.5774    0.7760 H       1  UNL1        0.0427
     36 H           1.9052   -0.2826    1.8122 H       1  UNL1        0.0427
     37 H           3.3884   -1.3632   -0.3217 H       1  UNL1        0.0430
     38 H           3.6090   -0.0757   -1.4891 H       1  UNL1        0.0430
     39 H           3.9967    0.3430    1.5168 H       1  UNL1        0.0326
     40 H           4.1773    1.5635    0.2775 H       1  UNL1        0.0326
     41 H          -4.6586    1.5740   -0.1366 H       1  UNL1        0.0389
     42 H          -3.0726   -1.1197   -1.9796 H       1  UNL1        0.0637
     43 H          -4.0832   -0.1102    2.0906 H       1  UNL1        0.0637
     44 H          -3.7077    4.2781    0.8995 H       1  UNL1        0.0237
     45 H          -4.4809    3.0260    1.8813 H       1  UNL1        0.0237
     46 H          -5.3721    3.7826    0.5488 H       1  UNL1        0.0237
     47 H          -2.9754    3.7165   -1.5119 H       1  UNL1        0.0237
     48 H          -4.6727    3.3265   -1.8560 H       1  UNL1        0.0237
     49 H          -3.3965    2.1452   -2.1985 H       1  UNL1        0.0237
     50 H          -5.0143   -2.6382   -2.0770 H       1  UNL1        0.0647
     51 H          -6.0284   -1.6267    1.9737 H       1  UNL1        0.0647
     52 H           5.5916   -1.5194    1.7442 H       1  UNL1        0.0620
     53 H           6.0841    1.5076   -1.2856 H       1  UNL1        0.0620
     54 H           7.9316   -2.2333    1.4012 H       1  UNL1        0.0618
     55 H           8.4220    0.7836   -1.6190 H       1  UNL1        0.0618
     56 H           9.3511   -1.0860   -0.2789 H       1  UNL1        0.0618
@<TRIPOS>BOND
     1     1    24    1
     2     2    11    2
     3     3     8    1
     4     3     9    1
     5     3    10    1
     6     4     5    1
     7     4    11   am
     8     4    13    1
     9     5     6    1
    10     5     7    1
    11     5    28    1
    12     6     8    1
    13     6    29    1
    14     6    30    1
    15     7     9    1
    16     7    31    1
    17     7    32    1
    18     8    33    1
    19     8    34    1
    20     9    35    1
    21     9    36    1
    22    10    12    1
    23    10    37    1
    24    10    38    1
    25    11    14    1
    26    12    15    1
    27    12    39    1
    28    12    40    1
    29    13    16   ar
    30    13    17   ar
    31    14    18    1
    32    14    19    1
    33    14    41    1
    34    15    22   ar
    35    15    23   ar
    36    16    20   ar
    37    16    42    1
    38    17    21   ar
    39    17    43    1
    40    18    44    1
    41    18    45    1
    42    18    46    1
    43    19    47    1
    44    19    48    1
    45    19    49    1
    46    20    24   ar
    47    20    50    1
    48    21    24   ar
    49    21    51    1
    50    22    25   ar
    51    22    52    1
    52    23    26   ar
    53    23    53    1
    54    25    27   ar
    55    25    54    1
    56    26    27   ar
    57    26    55    1
    58    27    56    1
@<TRIPOS>MOLECULE
165365058
 61 64 0 0 0
SMALL
GASTEIGER

@<TRIPOS>ATOM
      1 O           7.2856    0.1519   -1.1306 O.3     1  UNL1       -0.4914
      2 O          -3.9179    2.6740   -0.2173 O.2     1  UNL1       -0.2753
      3 N           0.4132    1.4200    0.0560 N.3     1  UNL1       -0.2992
      4 N          -3.6738    0.3187   -0.0856 N.am    1  UNL1       -0.2683
      5 C          -2.2378    0.1927   -0.0736 C.3     1  UNL1        0.0334
      6 C          -1.6499    0.7250    1.2336 C.3     1  UNL1       -0.0210
      7 C          -1.6180    0.9186   -1.2674 C.3     1  UNL1       -0.0210
      8 C          -0.1199    0.6791    1.2076 C.3     1  UNL1        0.0009
      9 C          -0.0890    0.8676   -1.2096 C.3     1  UNL1        0.0009
     10 C           1.8758    1.4102    0.0739 C.3     1  UNL1        0.0116
     11 C           2.3701    0.0942   -0.5520 C.3     1  UNL1       -0.0121
     12 C           2.3798    2.6423   -0.6779 C.3     1  UNL1       -0.0492
     13 C           3.7747   -0.2797   -0.1433 C.ar    1  UNL1       -0.0424
     14 C          -4.4578   -0.9106   -0.1936 C.ar    1  UNL1        0.0366
     15 C          -4.3497    1.5629    0.1002 C.2     1  UNL1        0.2198
     16 C           4.8587    0.1642   -0.9028 C.ar    1  UNL1       -0.0164
     17 C          -5.7448    1.4519    0.7084 C.3     1  UNL1        0.0217
     18 C           3.9782   -1.0755    0.9968 C.ar    1  UNL1       -0.0580
     19 C           6.1255   -0.1976   -0.4874 C.ar    1  UNL1        0.1240
     20 C           6.3338   -0.9847    0.6353 C.ar    1  UNL1       -0.0025
     21 C          -5.3946   -1.0530   -1.2172 C.ar    1  UNL1       -0.0403
     22 C          -4.2693   -1.9409    0.7276 C.ar    1  UNL1       -0.0403
     23 C           5.2686   -1.4398    1.3903 C.ar    1  UNL1       -0.0547
     24 C           7.7794   -1.2616    0.7790 C.3     1  UNL1        0.0101
     25 C           8.3229   -0.2079   -0.1873 C.3     1  UNL1        0.0937
     26 C          -6.1288    2.6734    1.5297 C.3     1  UNL1       -0.0570
     27 C          -6.1429   -2.2257   -1.3196 C.ar    1  UNL1       -0.0600
     28 C          -5.0176   -3.1136    0.6252 C.ar    1  UNL1       -0.0600
     29 C          -5.9544   -3.2560   -0.3984 C.ar    1  UNL1       -0.0616
     30 H          -1.9648   -0.8676   -0.1637 H       1  UNL1        0.0505
     31 H          -2.0193    0.1368    2.0824 H       1  UNL1        0.0296
     32 H          -1.9675    1.7597    1.4150 H       1  UNL1        0.0296
     33 H          -1.9205    1.9704   -1.3061 H       1  UNL1        0.0296
     34 H          -1.9673    0.4650   -2.2035 H       1  UNL1        0.0296
     35 H           0.2040   -0.3685    1.2119 H       1  UNL1        0.0427
     36 H           0.2421    1.1313    2.1393 H       1  UNL1        0.0427
     37 H           0.2863    1.4403   -2.0652 H       1  UNL1        0.0427
     38 H           0.1624   -0.1852   -1.3764 H       1  UNL1        0.0427
     39 H           2.2373    1.5054    1.1067 H       1  UNL1        0.0463
     40 H           1.7603   -0.7683   -0.2542 H       1  UNL1        0.0328
     41 H           2.3411    0.1283   -1.6501 H       1  UNL1        0.0328
     42 H           2.1764    2.5965   -1.7525 H       1  UNL1        0.0245
     43 H           3.4623    2.7521   -0.5544 H       1  UNL1        0.0245
     44 H           1.9201    3.5565   -0.2848 H       1  UNL1        0.0245
     45 H           4.7189    0.7737   -1.7891 H       1  UNL1        0.0657
     46 H           3.1307   -1.4207    1.5843 H       1  UNL1        0.0620
     47 H          -5.8058    0.5853    1.3737 H       1  UNL1        0.0356
     48 H          -6.4683    1.3233   -0.1031 H       1  UNL1        0.0356
     49 H          -5.5451   -0.2624   -1.9477 H       1  UNL1        0.0636
     50 H          -3.5512   -1.8439    1.5373 H       1  UNL1        0.0636
     51 H           5.4237   -2.0674    2.2611 H       1  UNL1        0.0622
     52 H           8.1601   -1.1190    1.7934 H       1  UNL1        0.0347
     53 H           8.0085   -2.2733    0.4294 H       1  UNL1        0.0347
     54 H           8.6178    0.7039    0.3479 H       1  UNL1        0.0700
     55 H           9.1975   -0.5758   -0.7339 H       1  UNL1        0.0700
     56 H          -6.1633    3.5728    0.9062 H       1  UNL1        0.0234
     57 H          -7.1159    2.5350    1.9814 H       1  UNL1        0.0234
     58 H          -5.4032    2.8487    2.3308 H       1  UNL1        0.0234
     59 H          -6.8709   -2.3374   -2.1178 H       1  UNL1        0.0618
     60 H          -4.8725   -3.9150    1.3437 H       1  UNL1        0.0618
     61 H          -6.5371   -4.1690   -0.4781 H       1  UNL1        0.0618
@<TRIPOS>BOND
     1     1    19    1
     2     1    25    1
     3     2    15    2
     4     3     8    1
     5     3     9    1
     6     3    10    1
     7     4     5    1
     8     4    14    1
     9     4    15   am
    10     5     6    1
    11     5     7    1
    12     5    30    1
    13     6     8    1
    14     6    31    1
    15     6    32    1
    16     7     9    1
    17     7    33    1
    18     7    34    1
    19     8    35    1
    20     8    36    1
    21     9    37    1
    22     9    38    1
    23    10    11    1
    24    10    12    1
    25    10    39    1
    26    11    13    1
    27    11    40    1
    28    11    41    1
    29    12    42    1
    30    12    43    1
    31    12    44    1
    32    13    16   ar
    33    13    18   ar
    34    14    21   ar
    35    14    22   ar
    36    15    17    1
    37    16    19   ar
    38    16    45    1
    39    17    26    1
    40    17    47    1
    41    17    48    1
    42    18    23   ar
    43    18    46    1
    44    19    20   ar
    45    20    23   ar
    46    20    24    1
    47    21    27   ar
    48    21    49    1
    49    22    28   ar
    50    22    50    1
    51    23    51    1
    52    24    25    1
    53    24    52    1
    54    24    53    1
    55    25    54    1
    56    25    55    1
    57    26    56    1
    58    26    57    1
    59    26    58    1
    60    27    29   ar
    61    27    59    1
    62    28    29   ar
    63    28    60    1
    64    29    61    1
@<TRIPOS>MOLECULE
527011
 53 55 0 0 0
SMALL
GASTEIGER

@<TRIPOS>ATOM
      1 CL         -4.5815   -4.5248   -0.2110 Cl      1  UNL1       -0.0835
      2 O          -3.3546    3.3137   -0.0310 O.2     1  UNL1       -0.2753
      3 N           1.4803    0.2359    0.4808 N.3     1  UNL1       -0.3019
      4 N          -2.6504    1.0512    0.0317 N.am    1  UNL1       -0.2683
      5 C          -1.2359    1.2829    0.1864 C.3     1  UNL1        0.0334
      6 C          -0.4513    0.7047   -0.9917 C.3     1  UNL1       -0.0210
      7 C          -0.7277    0.6905    1.5005 C.3     1  UNL1       -0.0210
      8 C           1.0564    0.8560   -0.7822 C.3     1  UNL1        0.0006
      9 C           0.7893    0.8410    1.6278 C.3     1  UNL1        0.0006
     10 C           2.9302    0.3438    0.6423 C.3     1  UNL1        0.0029
     11 C           3.6626   -0.3970   -0.4772 C.3     1  UNL1       -0.0149
     12 C          -3.1278   -0.3286   -0.0284 C.ar    1  UNL1        0.0366
     13 C          -3.6064    2.1065   -0.0655 C.2     1  UNL1        0.2198
     14 C           5.1589   -0.3125   -0.3101 C.ar    1  UNL1       -0.0462
     15 C          -5.0587    1.6515   -0.1771 C.3     1  UNL1        0.0217
     16 C          -3.4646   -0.9317    1.1467 C.ar    1  UNL1       -0.0389
     17 C          -3.2038   -0.9174   -1.2551 C.ar    1  UNL1       -0.0389
     18 C          -6.0334    2.8136   -0.2929 C.3     1  UNL1       -0.0570
     19 C           5.8510    0.7382   -0.8934 C.ar    1  UNL1       -0.0585
     20 C           5.8183   -1.2866    0.4245 C.ar    1  UNL1       -0.0585
     21 C          -3.9206   -2.2487    1.0895 C.ar    1  UNL1       -0.0416
     22 C          -3.6601   -2.2343   -1.3124 C.ar    1  UNL1       -0.0416
     23 C          -4.0183   -2.9001   -0.1402 C.ar    1  UNL1        0.0411
     24 C           7.2350    0.8166   -0.7388 C.ar    1  UNL1       -0.0615
     25 C           7.2024   -1.2080    0.5792 C.ar    1  UNL1       -0.0615
     26 C           7.9106   -0.1563   -0.0024 C.ar    1  UNL1       -0.0617
     27 H          -1.0637    2.3665    0.2115 H       1  UNL1        0.0505
     28 H          -0.6491   -0.3649   -1.1241 H       1  UNL1        0.0296
     29 H          -0.7479    1.2014   -1.9236 H       1  UNL1        0.0296
     30 H          -1.2201    1.1763    2.3515 H       1  UNL1        0.0296
     31 H          -0.9467   -0.3804    1.5745 H       1  UNL1        0.0296
     32 H           1.3295    1.9191   -0.8110 H       1  UNL1        0.0427
     33 H           1.5123    0.3745   -1.6508 H       1  UNL1        0.0427
     34 H           1.1038    0.3466    2.5551 H       1  UNL1        0.0427
     35 H           1.0463    1.9042    1.7230 H       1  UNL1        0.0427
     36 H           3.2456    1.3957    0.6728 H       1  UNL1        0.0430
     37 H           3.2229   -0.1002    1.6030 H       1  UNL1        0.0430
     38 H           3.3546   -1.4508   -0.5035 H       1  UNL1        0.0326
     39 H           3.4402    0.0060   -1.4701 H       1  UNL1        0.0326
     40 H          -5.1793    1.0260   -1.0667 H       1  UNL1        0.0356
     41 H          -5.3279    1.0735    0.7122 H       1  UNL1        0.0356
     42 H          -3.4022   -0.4244    2.1036 H       1  UNL1        0.0637
     43 H          -2.9383   -0.3988   -2.1703 H       1  UNL1        0.0637
     44 H          -5.9762    3.4646    0.5858 H       1  UNL1        0.0234
     45 H          -5.8173    3.4218   -1.1774 H       1  UNL1        0.0234
     46 H          -7.0597    2.4427   -0.3761 H       1  UNL1        0.0234
     47 H           5.3341    1.5028   -1.4664 H       1  UNL1        0.0620
     48 H           5.2753   -2.1082    0.8829 H       1  UNL1        0.0620
     49 H          -4.1992   -2.7538    2.0108 H       1  UNL1        0.0633
     50 H          -3.7338   -2.7282   -2.2780 H       1  UNL1        0.0633
     51 H           7.7865    1.6358   -1.1909 H       1  UNL1        0.0618
     52 H           7.7286   -1.9652    1.1531 H       1  UNL1        0.0618
     53 H           8.9882   -0.0951    0.1185 H       1  UNL1        0.0618
@<TRIPOS>BOND
     1     1    23    1
     2     2    13    2
     3     3     8    1
     4     3     9    1
     5     3    10    1
     6     4     5    1
     7     4    12    1
     8     4    13   am
     9     5     6    1
    10     5     7    1
    11     5    27    1
    12     6     8    1
    13     6    28    1
    14     6    29    1
    15     7     9    1
    16     7    30    1
    17     7    31    1
    18     8    32    1
    19     8    33    1
    20     9    34    1
    21     9    35    1
    22    10    11    1
    23    10    36    1
    24    10    37    1
    25    11    14    1
    26    11    38    1
    27    11    39    1
    28    12    16   ar
    29    12    17   ar
    30    13    15    1
    31    14    19   ar
    32    14    20   ar
    33    15    18    1
    34    15    40    1
    35    15    41    1
    36    16    21   ar
    37    16    42    1
    38    17    22   ar
    39    17    43    1
    40    18    44    1
    41    18    45    1
    42    18    46    1
    43    19    24   ar
    44    19    47    1
    45    20    25   ar
    46    20    48    1
    47    21    23   ar
    48    21    49    1
    49    22    23   ar
    50    22    50    1
    51    24    26   ar
    52    24    51    1
    53    25    26   ar
    54    25    52    1
    55    26    53    1
@<TRIPOS>MOLECULE
139032969
 53 55 0 0 0
SMALL
GASTEIGER

@<TRIPOS>ATOM
      1 CL         -3.5853    2.3223   -2.2303 Cl      1  UNL1       -0.1122
      2 O          -2.2220    2.4365    0.8018 O.2     1  UNL1       -0.2737
      3 N           1.6446    0.0915    0.4775 N.3     1  UNL1       -0.3019
      4 N          -2.5812    0.1742    0.2078 N.am    1  UNL1       -0.2671
      5 C          -1.2397   -0.3484    0.2815 C.3     1  UNL1        0.0334
      6 C          -0.5645    0.0527    1.5934 C.3     1  UNL1       -0.0210
      7 C          -0.4059    0.1237   -0.9093 C.3     1  UNL1       -0.0210
      8 C           0.8909   -0.4209    1.6302 C.3     1  UNL1        0.0006
      9 C           1.0446   -0.3511   -0.7886 C.3     1  UNL1        0.0006
     10 C           3.0440   -0.3268    0.5545 C.3     1  UNL1        0.0029
     11 C           3.9217    0.6067   -0.2787 C.3     1  UNL1       -0.0149
     12 C          -3.6869   -0.7741    0.1079 C.ar    1  UNL1        0.0366
     13 C          -2.8875    1.5684    0.2273 C.2     1  UNL1        0.2375
     14 C           5.3714    0.1947   -0.2283 C.ar    1  UNL1       -0.0462
     15 C          -4.1257    1.9994   -0.5595 C.3     1  UNL1        0.1076
     16 C          -4.6766   -0.7980    1.0908 C.ar    1  UNL1       -0.0403
     17 C          -3.7532   -1.6567   -0.9702 C.ar    1  UNL1       -0.0403
     18 C          -4.7530    3.2694    0.0051 C.3     1  UNL1       -0.0403
     19 C           6.2084    0.7103    0.7612 C.ar    1  UNL1       -0.0585
     20 C           5.8756   -0.7013   -1.1710 C.ar    1  UNL1       -0.0585
     21 C          -5.7323   -1.7046    0.9954 C.ar    1  UNL1       -0.0600
     22 C          -4.8090   -2.5632   -1.0654 C.ar    1  UNL1       -0.0600
     23 C          -5.7986   -2.5871   -0.0827 C.ar    1  UNL1       -0.0616
     24 C           7.5496    0.3299    0.8082 C.ar    1  UNL1       -0.0615
     25 C           7.2168   -1.0818   -1.1240 C.ar    1  UNL1       -0.0615
     26 C           8.0538   -0.5661   -0.1345 C.ar    1  UNL1       -0.0617
     27 H          -1.2811   -1.4460    0.2557 H       1  UNL1        0.0505
     28 H          -0.5614    1.1364    1.7428 H       1  UNL1        0.0296
     29 H          -1.1120   -0.3752    2.4422 H       1  UNL1        0.0296
     30 H          -0.8369   -0.2515   -1.8454 H       1  UNL1        0.0296
     31 H          -0.4159    1.2191   -0.9821 H       1  UNL1        0.0296
     32 H           1.3392   -0.0568    2.5628 H       1  UNL1        0.0427
     33 H           0.9221   -1.5182    1.6605 H       1  UNL1        0.0427
     34 H           1.0766   -1.4454   -0.8752 H       1  UNL1        0.0427
     35 H           1.5882    0.0551   -1.6475 H       1  UNL1        0.0427
     36 H           3.1703   -1.3750    0.2517 H       1  UNL1        0.0430
     37 H           3.3961   -0.2661    1.5935 H       1  UNL1        0.0430
     38 H           3.6120    0.6311   -1.3297 H       1  UNL1        0.0326
     39 H           3.8248    1.6398    0.0814 H       1  UNL1        0.0326
     40 H          -4.8977    1.2349   -0.6229 H       1  UNL1        0.0558
     41 H          -4.6343   -0.1192    1.9386 H       1  UNL1        0.0636
     42 H          -2.9939   -1.6458   -1.7473 H       1  UNL1        0.0636
     43 H          -4.0537    4.1131   -0.0003 H       1  UNL1        0.0248
     44 H          -5.6371    3.5604   -0.5724 H       1  UNL1        0.0248
     45 H          -5.0673    3.1097    1.0424 H       1  UNL1        0.0248
     46 H           5.8269    1.4077    1.5022 H       1  UNL1        0.0620
     47 H           5.2328   -1.1114   -1.9455 H       1  UNL1        0.0620
     48 H          -6.5024   -1.7239    1.7610 H       1  UNL1        0.0618
     49 H          -4.8616   -3.2493   -1.9057 H       1  UNL1        0.0618
     50 H          -6.6208   -3.2927   -0.1571 H       1  UNL1        0.0618
     51 H           8.2012    0.7309    1.5790 H       1  UNL1        0.0618
     52 H           7.6093   -1.7799   -1.8576 H       1  UNL1        0.0618
     53 H           9.0980   -0.8625   -0.0978 H       1  UNL1        0.0618
@<TRIPOS>BOND
     1     1    15    1
     2     2    13    2
     3     3     8    1
     4     3     9    1
     5     3    10    1
     6     4     5    1
     7     4    12    1
     8     4    13   am
     9     5     6    1
    10     5     7    1
    11     5    27    1
    12     6     8    1
    13     6    28    1
    14     6    29    1
    15     7     9    1
    16     7    30    1
    17     7    31    1
    18     8    32    1
    19     8    33    1
    20     9    34    1
    21     9    35    1
    22    10    11    1
    23    10    36    1
    24    10    37    1
    25    11    14    1
    26    11    38    1
    27    11    39    1
    28    12    16   ar
    29    12    17   ar
    30    13    15    1
    31    14    19   ar
    32    14    20   ar
    33    15    18    1
    34    15    40    1
    35    16    21   ar
    36    16    41    1
    37    17    22   ar
    38    17    42    1
    39    18    43    1
    40    18    44    1
    41    18    45    1
    42    19    24   ar
    43    19    46    1
    44    20    25   ar
    45    20    47    1
    46    21    23   ar
    47    21    48    1
    48    22    23   ar
    49    22    49    1
    50    23    50    1
    51    24    26   ar
    52    24    51    1
    53    25    26   ar
    54    25    52    1
    55    26    53    1
@<TRIPOS>MOLECULE
129697494
 58 60 0 0 0
SMALL
GASTEIGER

@<TRIPOS>ATOM
      1 F          10.1381   -0.9034    0.2514 F       1  UNL1       -0.2055
      2 O          -3.7230    2.3983   -1.0790 O.2     1  UNL1       -0.2753
      3 O           4.4279    1.7530    0.6286 O.2     1  UNL1       -0.2921
      4 N          -0.0954   -0.2484   -0.7573 N.3     1  UNL1       -0.3022
      5 N          -4.2624    0.2629   -0.2058 N.am    1  UNL1       -0.2683
      6 C          -2.9766   -0.3862   -0.2672 C.3     1  UNL1        0.0334
      7 C          -2.3916   -0.3036   -1.6768 C.3     1  UNL1       -0.0210
      8 C          -2.0044    0.2214    0.7443 C.3     1  UNL1       -0.0210
      9 C          -0.9838   -0.8996   -1.7299 C.3     1  UNL1        0.0006
     10 C          -0.6097   -0.3928    0.6117 C.3     1  UNL1        0.0006
     11 C           1.2582   -0.7943   -0.8555 C.3     1  UNL1       -0.0007
     12 C           2.2765    0.2219   -0.3342 C.3     1  UNL1       -0.0332
     13 C          -5.4140   -0.5605    0.1535 C.ar    1  UNL1        0.0366
     14 C          -4.4332    1.6681   -0.3831 C.2     1  UNL1        0.2198
     15 C           3.7133   -0.3005   -0.4191 C.3     1  UNL1        0.0116
     16 C          -5.6387    2.2670    0.3358 C.3     1  UNL1        0.0217
     17 C          -6.5223   -0.6153   -0.6916 C.ar    1  UNL1       -0.0403
     18 C          -5.4059   -1.2919    1.3413 C.ar    1  UNL1       -0.0403
     19 C           4.7408    0.6594    0.1638 C.2     1  UNL1        0.1632
     20 C          -5.4232    3.7177    0.7400 C.3     1  UNL1       -0.0570
     21 C          -7.6226   -1.4013   -0.3491 C.ar    1  UNL1       -0.0600
     22 C          -6.5061   -2.0781    1.6837 C.ar    1  UNL1       -0.0600
     23 C          -7.6145   -2.1326    0.8386 C.ar    1  UNL1       -0.0616
     24 C           6.1724    0.2446    0.1876 C.ar    1  UNL1        0.0176
     25 C           6.5461   -1.0007   -0.3177 C.ar    1  UNL1       -0.0486
     26 C           7.1386    1.1018    0.7145 C.ar    1  UNL1       -0.0486
     27 C           7.8856   -1.3889   -0.2959 C.ar    1  UNL1       -0.0258
     28 C           8.4781    0.7137    0.7363 C.ar    1  UNL1       -0.0258
     29 C           8.8516   -0.5317    0.2311 C.ar    1  UNL1        0.1234
     30 H          -3.0938   -1.4524   -0.0296 H       1  UNL1        0.0505
     31 H          -2.3348    0.7296   -2.0347 H       1  UNL1        0.0296
     32 H          -3.0415   -0.8367   -2.3820 H       1  UNL1        0.0296
     33 H          -2.3763    0.0665    1.7644 H       1  UNL1        0.0296
     34 H          -1.9235    1.3075    0.6086 H       1  UNL1        0.0296
     35 H          -0.5962   -0.7561   -2.7460 H       1  UNL1        0.0427
     36 H          -1.0329   -1.9816   -1.5497 H       1  UNL1        0.0427
     37 H          -0.6496   -1.4504    0.9050 H       1  UNL1        0.0427
     38 H           0.0396    0.1161    1.3316 H       1  UNL1        0.0427
     39 H           1.3507   -1.7541   -0.3313 H       1  UNL1        0.0427
     40 H           1.5119   -0.9882   -1.9062 H       1  UNL1        0.0427
     41 H           2.1973    1.1553   -0.9070 H       1  UNL1        0.0282
     42 H           2.0680    0.4812    0.7100 H       1  UNL1        0.0282
     43 H           3.9622   -0.4811   -1.4709 H       1  UNL1        0.0345
     44 H           3.7695   -1.2437    0.1366 H       1  UNL1        0.0345
     45 H          -5.8570    1.7067    1.2501 H       1  UNL1        0.0356
     46 H          -6.5059    2.2044   -0.3295 H       1  UNL1        0.0356
     47 H          -6.5386   -0.0583   -1.6248 H       1  UNL1        0.0636
     48 H          -4.5557   -1.2539    2.0167 H       1  UNL1        0.0636
     49 H          -5.2737    4.3537   -0.1386 H       1  UNL1        0.0234
     50 H          -4.5403    3.8173    1.3799 H       1  UNL1        0.0234
     51 H          -6.2921    4.0945    1.2884 H       1  UNL1        0.0234
     52 H          -8.4848   -1.4454   -1.0081 H       1  UNL1        0.0618
     53 H          -6.5008   -2.6460    2.6095 H       1  UNL1        0.0618
     54 H          -8.4711   -2.7446    1.1053 H       1  UNL1        0.0618
     55 H           5.8308   -1.6992   -0.7393 H       1  UNL1        0.0625
     56 H           6.8728    2.0770    1.1136 H       1  UNL1        0.0625
     57 H           8.1776   -2.3580   -0.6897 H       1  UNL1        0.0646
     58 H           9.2308    1.3807    1.1462 H       1  UNL1        0.0646
@<TRIPOS>BOND
     1     1    29    1
     2     2    14    2
     3     3    19    2
     4     4     9    1
     5     4    10    1
     6     4    11    1
     7     5     6    1
     8     5    13    1
     9     5    14   am
    10     6     7    1
    11     6     8    1
    12     6    30    1
    13     7     9    1
    14     7    31    1
    15     7    32    1
    16     8    10    1
    17     8    33    1
    18     8    34    1
    19     9    35    1
    20     9    36    1
    21    10    37    1
    22    10    38    1
    23    11    12    1
    24    11    39    1
    25    11    40    1
    26    12    15    1
    27    12    41    1
    28    12    42    1
    29    13    17   ar
    30    13    18   ar
    31    14    16    1
    32    15    19    1
    33    15    43    1
    34    15    44    1
    35    16    20    1
    36    16    45    1
    37    16    46    1
    38    17    21   ar
    39    17    47    1
    40    18    22   ar
    41    18    48    1
    42    19    24    1
    43    20    49    1
    44    20    50    1
    45    20    51    1
    46    21    23   ar
    47    21    52    1
    48    22    23   ar
    49    22    53    1
    50    23    54    1
    51    24    25   ar
    52    24    26   ar
    53    25    27   ar
    54    25    55    1
    55    26    28   ar
    56    26    56    1
    57    27    29   ar
    58    27    57    1
    59    28    29   ar
    60    28    58    1
@<TRIPOS>MOLECULE
46781607
 53 55 0 0 0
SMALL
GASTEIGER

@<TRIPOS>ATOM
      1 F          -6.9166   -2.7838    0.0946 F       1  UNL1       -0.2055
      2 O          -1.8778    2.8469   -0.5202 O.2     1  UNL1       -0.2753
      3 N           1.7516    0.1861   -0.3970 N.3     1  UNL1       -0.3019
      4 N          -2.4580    0.5777   -0.1634 N.am    1  UNL1       -0.2683
      5 C          -1.1602   -0.0464   -0.2308 C.3     1  UNL1        0.0334
      6 C          -0.3016    0.3375    0.9746 C.3     1  UNL1       -0.0210
      7 C          -0.4440    0.3253   -1.5289 C.3     1  UNL1       -0.0210
      8 C           1.1109   -0.2379    0.8557 C.3     1  UNL1        0.0006
      9 C           0.9735   -0.2486   -1.5652 C.3     1  UNL1        0.0006
     10 C           3.1185   -0.3295   -0.4723 C.3     1  UNL1        0.0029
     11 C           4.0825    0.5566    0.3172 C.3     1  UNL1       -0.0149
     12 C          -3.6230   -0.3007   -0.0963 C.ar    1  UNL1        0.0367
     13 C          -2.6376    1.9893   -0.0630 C.2     1  UNL1        0.2198
     14 C           5.4996    0.0484    0.2296 C.ar    1  UNL1       -0.0462
     15 C          -3.9179    2.4280    0.6421 C.3     1  UNL1        0.0217
     16 C          -4.6442   -0.1785   -1.0388 C.ar    1  UNL1       -0.0376
     17 C          -3.7149   -1.2616    0.9107 C.ar    1  UNL1       -0.0376
     18 C          -3.7700    3.7633    1.3558 C.3     1  UNL1       -0.0570
     19 C           5.9728   -0.8643    1.1723 C.ar    1  UNL1       -0.0585
     20 C           6.3370    0.4911   -0.7942 C.ar    1  UNL1       -0.0585
     21 C          -5.7569   -1.0170   -0.9742 C.ar    1  UNL1       -0.0247
     22 C          -4.8276   -2.1000    0.9754 C.ar    1  UNL1       -0.0247
     23 C          -5.8486   -1.9778    0.0330 C.ar    1  UNL1        0.1235
     24 C           7.2838   -1.3342    1.0913 C.ar    1  UNL1       -0.0615
     25 C           7.6477    0.0213   -0.8753 C.ar    1  UNL1       -0.0615
     26 C           8.1212   -0.8914    0.0674 C.ar    1  UNL1       -0.0617
     27 H          -1.2795   -1.1385   -0.2307 H       1  UNL1        0.0505
     28 H          -0.7668   -0.0245    1.8994 H       1  UNL1        0.0296
     29 H          -0.2286    1.4281    1.0741 H       1  UNL1        0.0296
     30 H          -0.3726    1.4102   -1.6588 H       1  UNL1        0.0296
     31 H          -1.0127   -0.0495   -2.3890 H       1  UNL1        0.0296
     32 H           1.0633   -1.3332    0.9202 H       1  UNL1        0.0427
     33 H           1.6823    0.1113    1.7224 H       1  UNL1        0.0427
     34 H           1.4537    0.1018   -2.4871 H       1  UNL1        0.0427
     35 H           0.9278   -1.3445   -1.6177 H       1  UNL1        0.0427
     36 H           3.4604   -0.3258   -1.5168 H       1  UNL1        0.0430
     37 H           3.1754   -1.3762   -0.1440 H       1  UNL1        0.0430
     38 H           4.0429    1.5881   -0.0579 H       1  UNL1        0.0326
     39 H           3.7984    0.6155    1.3747 H       1  UNL1        0.0326
     40 H          -4.7157    2.5057   -0.1036 H       1  UNL1        0.0356
     41 H          -4.2125    1.6909    1.3954 H       1  UNL1        0.0356
     42 H          -4.5815    0.5592   -1.8345 H       1  UNL1        0.0637
     43 H          -2.9341   -1.3649    1.6592 H       1  UNL1        0.0637
     44 H          -4.6946    4.0195    1.8822 H       1  UNL1        0.0234
     45 H          -2.9548    3.7271    2.0859 H       1  UNL1        0.0234
     46 H          -3.5488    4.5672    0.6462 H       1  UNL1        0.0234
     47 H           5.3292   -1.2182    1.9733 H       1  UNL1        0.0620
     48 H           5.9792    1.2006   -1.5356 H       1  UNL1        0.0620
     49 H          -6.5511   -0.9237   -1.7090 H       1  UNL1        0.0647
     50 H          -4.9004   -2.8468    1.7604 H       1  UNL1        0.0647
     51 H           7.6523   -2.0452    1.8249 H       1  UNL1        0.0618
     52 H           8.2997    0.3655   -1.6728 H       1  UNL1        0.0618
     53 H           9.1418   -1.2573    0.0040 H       1  UNL1        0.0618
@<TRIPOS>BOND
     1     1    23    1
     2     2    13    2
     3     3     8    1
     4     3     9    1
     5     3    10    1
     6     4     5    1
     7     4    12    1
     8     4    13   am
     9     5     6    1
    10     5     7    1
    11     5    27    1
    12     6     8    1
    13     6    28    1
    14     6    29    1
    15     7     9    1
    16     7    30    1
    17     7    31    1
    18     8    32    1
    19     8    33    1
    20     9    34    1
    21     9    35    1
    22    10    11    1
    23    10    36    1
    24    10    37    1
    25    11    14    1
    26    11    38    1
    27    11    39    1
    28    12    16   ar
    29    12    17   ar
    30    13    15    1
    31    14    19   ar
    32    14    20   ar
    33    15    18    1
    34    15    40    1
    35    15    41    1
    36    16    21   ar
    37    16    42    1
    38    17    22   ar
    39    17    43    1
    40    18    44    1
    41    18    45    1
    42    18    46    1
    43    19    24   ar
    44    19    47    1
    45    20    25   ar
    46    20    48    1
    47    21    23   ar
    48    21    49    1
    49    22    23   ar
    50    22    50    1
    51    24    26   ar
    52    24    51    1
    53    25    26   ar
    54    25    52    1
    55    26    53    1
@<TRIPOS>MOLECULE
156613767
 57 59 0 0 0
SMALL
GASTEIGER

@<TRIPOS>ATOM
      1 O          -1.7877    2.3997   -1.2732 O.2     1  UNL1       -0.2752
      2 O          -6.6845   -3.1656    0.4065 O.3     1  UNL1       -0.5068
      3 N           1.8673    0.2083    0.2270 N.3     1  UNL1       -0.3019
      4 N          -2.3352    0.3138   -0.2871 N.am    1  UNL1       -0.2683
      5 C          -1.0236   -0.1889    0.0369 C.3     1  UNL1        0.0334
      6 C          -0.3857    0.6246    1.1635 C.3     1  UNL1       -0.0210
      7 C          -0.1199   -0.1857   -1.1958 C.3     1  UNL1       -0.0210
      8 C           1.0434    0.1516    1.4424 C.3     1  UNL1        0.0006
      9 C           1.3007   -0.6303   -0.8383 C.3     1  UNL1        0.0006
     10 C           3.2415   -0.1972    0.5211 C.3     1  UNL1        0.0029
     11 C           4.1953    0.3616   -0.5343 C.3     1  UNL1       -0.0149
     12 C          -3.4681   -0.5924   -0.1065 C.ar    1  UNL1        0.0368
     13 C          -2.5795    1.6662   -0.6760 C.2     1  UNL1        0.2200
     14 C          -3.9738    2.1902   -0.3396 C.3     1  UNL1        0.0242
     15 C           5.6211   -0.0487   -0.2644 C.ar    1  UNL1       -0.0462
     16 C          -3.6904   -1.1923    1.1330 C.ar    1  UNL1       -0.0368
     17 C          -4.3266   -0.8572   -1.1734 C.ar    1  UNL1       -0.0368
     18 C          -3.9904    3.6962   -0.0746 C.3     1  UNL1       -0.0476
     19 C           6.4391    0.7550    0.5296 C.ar    1  UNL1       -0.0585
     20 C           6.1221   -1.2312   -0.8087 C.ar    1  UNL1       -0.0585
     21 C          -4.7712   -2.0569    1.3056 C.ar    1  UNL1       -0.0184
     22 C          -5.4075   -1.7219   -1.0010 C.ar    1  UNL1       -0.0184
     23 C          -5.6297   -2.3217    0.2386 C.ar    1  UNL1        0.1170
     24 C          -3.1153    4.0628    1.1133 C.3     1  UNL1       -0.0648
     25 C           7.7581    0.3763    0.7793 C.ar    1  UNL1       -0.0615
     26 C           7.4411   -1.6100   -0.5590 C.ar    1  UNL1       -0.0615
     27 C           8.2592   -0.8062    0.2350 C.ar    1  UNL1       -0.0617
     28 H          -1.1059   -1.2315    0.3732 H       1  UNL1        0.0505
     29 H          -0.9845    0.5389    2.0783 H       1  UNL1        0.0296
     30 H          -0.3594    1.6923    0.9113 H       1  UNL1        0.0296
     31 H          -0.0597    0.8067   -1.6548 H       1  UNL1        0.0296
     32 H          -0.5315   -0.8547   -1.9619 H       1  UNL1        0.0296
     33 H           1.0227   -0.8664    1.8533 H       1  UNL1        0.0427
     34 H           1.4685    0.8059    2.2134 H       1  UNL1        0.0427
     35 H           1.8982   -0.5659   -1.7533 H       1  UNL1        0.0427
     36 H           1.2857   -1.6866   -0.5378 H       1  UNL1        0.0427
     37 H           3.5525    0.2116    1.4925 H       1  UNL1        0.0430
     38 H           3.3317   -1.2884    0.6079 H       1  UNL1        0.0430
     39 H           3.9311    0.0271   -1.5440 H       1  UNL1        0.0326
     40 H           4.1314    1.4578   -0.5605 H       1  UNL1        0.0326
     41 H          -4.6324    1.9732   -1.1874 H       1  UNL1        0.0358
     42 H          -4.3756    1.6909    0.5477 H       1  UNL1        0.0358
     43 H          -3.0378   -0.9901    1.9779 H       1  UNL1        0.0637
     44 H          -4.1598   -0.4044   -2.1474 H       1  UNL1        0.0637
     45 H          -3.6495    4.2449   -0.9601 H       1  UNL1        0.0267
     46 H          -5.0207    4.0129    0.1241 H       1  UNL1        0.0267
     47 H           6.0598    1.6777    0.9606 H       1  UNL1        0.0620
     48 H           5.4939   -1.8668   -1.4272 H       1  UNL1        0.0620
     49 H          -4.9348   -2.5162    2.2768 H       1  UNL1        0.0655
     50 H          -6.0716   -1.9258   -1.8364 H       1  UNL1        0.0655
     51 H          -3.4195    3.5135    2.0103 H       1  UNL1        0.0230
     52 H          -2.0578    3.8557    0.9261 H       1  UNL1        0.0230
     53 H          -3.2075    5.1325    1.3280 H       1  UNL1        0.0230
     54 H           8.3950    1.0019    1.3980 H       1  UNL1        0.0618
     55 H           7.8311   -2.5311   -0.9822 H       1  UNL1        0.0618
     56 H           9.2862   -1.1012    0.4296 H       1  UNL1        0.0618
     57 H          -6.6864   -3.4887    1.3240 H       1  UNL1        0.2921
@<TRIPOS>BOND
     1     1    13    2
     2     2    23    1
     3     2    57    1
     4     3     8    1
     5     3     9    1
     6     3    10    1
     7     4     5    1
     8     4    12    1
     9     4    13   am
    10     5     6    1
    11     5     7    1
    12     5    28    1
    13     6     8    1
    14     6    29    1
    15     6    30    1
    16     7     9    1
    17     7    31    1
    18     7    32    1
    19     8    33    1
    20     8    34    1
    21     9    35    1
    22     9    36    1
    23    10    11    1
    24    10    37    1
    25    10    38    1
    26    11    15    1
    27    11    39    1
    28    11    40    1
    29    12    16   ar
    30    12    17   ar
    31    13    14    1
    32    14    18    1
    33    14    41    1
    34    14    42    1
    35    15    19   ar
    36    15    20   ar
    37    16    21   ar
    38    16    43    1
    39    17    22   ar
    40    17    44    1
    41    18    24    1
    42    18    45    1
    43    18    46    1
    44    19    25   ar
    45    19    47    1
    46    20    26   ar
    47    20    48    1
    48    21    23   ar
    49    21    49    1
    50    22    23   ar
    51    22    50    1
    52    24    51    1
    53    24    52    1
    54    24    53    1
    55    25    27   ar
    56    25    54    1
    57    26    27   ar
    58    26    55    1
    59    27    56    1
@<TRIPOS>MOLECULE
165361480
 67 69 0 0 0
SMALL
GASTEIGER

@<TRIPOS>ATOM
      1 O           1.6866   -1.9799    0.5441 O.2     1  UNL1       -0.2753
      2 O          -4.7139    2.0704    0.8470 O.3     1  UNL1       -0.4946
      3 O          -3.1652   -2.8478   -1.1139 O.3     1  UNL1       -0.4948
      4 N          -0.6549    1.6691   -0.2492 N.3     1  UNL1       -0.3019
      5 N           3.1471   -0.1547    0.1442 N.am    1  UNL1       -0.2683
      6 C           2.1500    0.8710   -0.0338 C.3     1  UNL1        0.0334
      7 C           1.2342    0.9656    1.1869 C.3     1  UNL1       -0.0210
      8 C           1.3260    0.6156   -1.2956 C.3     1  UNL1       -0.0210
      9 C           0.1179    1.9881    0.9592 C.3     1  UNL1        0.0006
     10 C           0.2056    1.6489   -1.4400 C.3     1  UNL1        0.0006
     11 C          -1.7485    2.6245   -0.4242 C.3     1  UNL1        0.0030
     12 C          -2.8437    2.0199   -1.3022 C.3     1  UNL1       -0.0113
     13 C           4.5494    0.2589    0.1348 C.ar    1  UNL1        0.0366
     14 C           2.8238   -1.5175    0.4231 C.2     1  UNL1        0.2198
     15 C          -3.4214    0.7712   -0.6849 C.ar    1  UNL1       -0.0008
     16 C           4.0238   -2.4541    0.5279 C.3     1  UNL1        0.0217
     17 C           5.1096    0.7979   -1.0233 C.ar    1  UNL1       -0.0403
     18 C           5.3271    0.1143    1.2837 C.ar    1  UNL1       -0.0403
     19 C          -4.3339    0.8512    0.3669 C.ar    1  UNL1        0.1266
     20 C          -3.0326   -0.4744   -1.1778 C.ar    1  UNL1       -0.0130
     21 C          -4.8577   -0.3145    0.9260 C.ar    1  UNL1       -0.0022
     22 C          -3.5564   -1.6401   -0.6188 C.ar    1  UNL1        0.1237
     23 C           3.7007   -3.8770    0.0974 C.3     1  UNL1       -0.0570
     24 C          -4.4690   -1.5601    0.4331 C.ar    1  UNL1       -0.0024
     25 C           6.4476    1.1923   -1.0326 C.ar    1  UNL1       -0.0600
     26 C           6.6650    0.5086    1.2744 C.ar    1  UNL1       -0.0600
     27 C           7.2253    1.0476    0.1162 C.ar    1  UNL1       -0.0616
     28 C          -5.8356   -0.2231    2.0539 C.3     1  UNL1       -0.0359
     29 C          -5.0258   -2.8149    1.0267 C.3     1  UNL1       -0.0359
     30 C          -5.8523    2.6772    0.2406 C.3     1  UNL1        0.0788
     31 C          -2.2288   -2.8343   -2.1897 C.3     1  UNL1        0.0788
     32 H           2.6519    1.8422   -0.1466 H       1  UNL1        0.0505
     33 H           1.8188    1.2532    2.0697 H       1  UNL1        0.0296
     34 H           0.7665    0.0059    1.4292 H       1  UNL1        0.0296
     35 H           0.8804   -0.3867   -1.2830 H       1  UNL1        0.0296
     36 H           1.9720    0.6525   -2.1811 H       1  UNL1        0.0296
     37 H          -0.5382    1.9703    1.8383 H       1  UNL1        0.0427
     38 H           0.5472    2.9965    0.8931 H       1  UNL1        0.0427
     39 H           0.6463    2.6384   -1.6209 H       1  UNL1        0.0427
     40 H          -0.3651    1.3830   -2.3357 H       1  UNL1        0.0427
     41 H          -2.1873    2.8815    0.5485 H       1  UNL1        0.0430
     42 H          -1.3945    3.5694   -0.8563 H       1  UNL1        0.0430
     43 H          -3.6353    2.7632   -1.4503 H       1  UNL1        0.0327
     44 H          -2.4804    1.8120   -2.3155 H       1  UNL1        0.0327
     45 H           4.3627   -2.4705    1.5686 H       1  UNL1        0.0356
     46 H           4.8454   -2.1367   -0.1183 H       1  UNL1        0.0356
     47 H           4.5173    0.9117   -1.9271 H       1  UNL1        0.0636
     48 H           4.9006   -0.2759    2.2039 H       1  UNL1        0.0636
     49 H          -2.3206   -0.4756   -1.9959 H       1  UNL1        0.0658
     50 H           3.3263   -3.8985   -0.9315 H       1  UNL1        0.0234
     51 H           4.5946   -4.5060    0.1530 H       1  UNL1        0.0234
     52 H           2.9341   -4.3196    0.7419 H       1  UNL1        0.0234
     53 H           6.8841    1.6112   -1.9346 H       1  UNL1        0.0618
     54 H           7.2688    0.4023    2.1708 H       1  UNL1        0.0618
     55 H           8.2667    1.3558    0.1094 H       1  UNL1        0.0618
     56 H          -5.6259   -0.9693    2.8273 H       1  UNL1        0.0279
     57 H          -6.8547   -0.3693    1.6815 H       1  UNL1        0.0279
     58 H          -5.7967    0.7432    2.5670 H       1  UNL1        0.0279
     59 H          -4.8322   -3.6973    0.4084 H       1  UNL1        0.0279
     60 H          -4.5809   -2.9975    2.0104 H       1  UNL1        0.0279
     61 H          -6.1146   -2.7526    1.1271 H       1  UNL1        0.0279
     62 H          -5.8059    3.7538    0.4261 H       1  UNL1        0.0660
     63 H          -5.8815    2.5089   -0.8409 H       1  UNL1        0.0660
     64 H          -6.7668    2.2849    0.6951 H       1  UNL1        0.0660
     65 H          -2.0303   -3.8779   -2.4557 H       1  UNL1        0.0660
     66 H          -2.6446   -2.3542   -3.0822 H       1  UNL1        0.0660
     67 H          -1.2708   -2.3978   -1.8866 H       1  UNL1        0.0660
@<TRIPOS>BOND
     1     1    14    2
     2     2    19    1
     3     2    30    1
     4     3    22    1
     5     3    31    1
     6     4     9    1
     7     4    10    1
     8     4    11    1
     9     5     6    1
    10     5    13    1
    11     5    14   am
    12     6     7    1
    13     6     8    1
    14     6    32    1
    15     7     9    1
    16     7    33    1
    17     7    34    1
    18     8    10    1
    19     8    35    1
    20     8    36    1
    21     9    37    1
    22     9    38    1
    23    10    39    1
    24    10    40    1
    25    11    12    1
    26    11    41    1
    27    11    42    1
    28    12    15    1
    29    12    43    1
    30    12    44    1
    31    13    17   ar
    32    13    18   ar
    33    14    16    1
    34    15    19   ar
    35    15    20   ar
    36    16    23    1
    37    16    45    1
    38    16    46    1
    39    17    25   ar
    40    17    47    1
    41    18    26   ar
    42    18    48    1
    43    19    21   ar
    44    20    22   ar
    45    20    49    1
    46    21    24   ar
    47    21    28    1
    48    22    24   ar
    49    23    50    1
    50    23    51    1
    51    23    52    1
    52    24    29    1
    53    25    27   ar
    54    25    53    1
    55    26    27   ar
    56    26    54    1
    57    27    55    1
    58    28    56    1
    59    28    57    1
    60    28    58    1
    61    29    59    1
    62    29    60    1
    63    29    61    1
    64    30    62    1
    65    30    63    1
    66    30    64    1
    67    31    65    1
    68    31    66    1
    69    31    67    1
@<TRIPOS>MOLECULE
165361511
 55 58 0 0 0
SMALL
GASTEIGER

@<TRIPOS>ATOM
      1 O          -1.2044    3.1626   -0.5640 O.2     1  UNL1       -0.2753
      2 O          -5.1542   -2.4451    1.4038 O.2     1  UNL1       -0.4424
      3 N           2.1985    0.3188    0.2955 N.3     1  UNL1       -0.3019
      4 N          -1.9596    0.9420   -0.2131 N.am    1  UNL1       -0.2682
      5 N          -6.5422   -2.2725   -0.3796 N.ar    1  UNL1       -0.2161
      6 C          -0.7069    0.2527   -0.0298 C.3     1  UNL1        0.0334
      7 C          -0.0439    0.6577    1.2872 C.3     1  UNL1       -0.0210
      8 C           0.2373    0.5191   -1.2019 C.3     1  UNL1       -0.0210
      9 C           1.3299   -0.0011    1.4368 C.3     1  UNL1        0.0006
     10 C           1.6023   -0.1338   -0.9688 C.3     1  UNL1        0.0006
     11 C           3.5227   -0.2749    0.4782 C.3     1  UNL1        0.0029
     12 C           4.5568    0.4686   -0.3667 C.3     1  UNL1       -0.0149
     13 C          -3.1700    0.1275   -0.3074 C.ar    1  UNL1        0.0402
     14 C          -2.0754    2.3654   -0.2070 C.2     1  UNL1        0.2198
     15 C          -3.4313    2.8978    0.2479 C.3     1  UNL1        0.0217
     16 C           5.9328   -0.1276   -0.2080 C.ar    1  UNL1       -0.0462
     17 C          -3.4697   -0.7713    0.7221 C.ar    1  UNL1        0.0043
     18 C          -4.0029    0.2624   -1.4250 C.ar    1  UNL1       -0.0380
     19 C          -4.6360   -1.5082    0.5564 C.ar    1  UNL1        0.1568
     20 C          -5.1728   -0.4997   -1.5567 C.ar    1  UNL1       -0.0308
     21 C          -3.3350    4.2601    0.9180 C.3     1  UNL1       -0.0570
     22 C          -5.4878   -1.4054   -0.5335 C.ar    1  UNL1        0.1094
     23 C           6.7863    0.3449    0.7890 C.ar    1  UNL1       -0.0585
     24 C           6.3525   -1.1508   -1.0580 C.ar    1  UNL1       -0.0585
     25 C           8.0593   -0.2058    0.9361 C.ar    1  UNL1       -0.0615
     26 C           7.6256   -1.7016   -0.9109 C.ar    1  UNL1       -0.0615
     27 C           8.4791   -1.2290    0.0861 C.ar    1  UNL1       -0.0617
     28 C          -6.2911   -2.8530    0.7732 C.ar    1  UNL1        0.1831
     29 H          -0.8872   -0.8306   -0.0021 H       1  UNL1        0.0505
     30 H          -0.6798    0.3732    2.1342 H       1  UNL1        0.0296
     31 H           0.0798    1.7466    1.3468 H       1  UNL1        0.0296
     32 H           0.3964    1.5907   -1.3621 H       1  UNL1        0.0296
     33 H          -0.2011    0.1310   -2.1298 H       1  UNL1        0.0296
     34 H           1.2097   -1.0873    1.5440 H       1  UNL1        0.0427
     35 H           1.7804    0.3703    2.3655 H       1  UNL1        0.0427
     36 H           2.2352    0.1299   -1.8222 H       1  UNL1        0.0427
     37 H           1.4884   -1.2261   -0.9783 H       1  UNL1        0.0427
     38 H           3.5184   -1.3503    0.2551 H       1  UNL1        0.0430
     39 H           3.8319   -0.1838    1.5287 H       1  UNL1        0.0430
     40 H           4.3018    0.4550   -1.4324 H       1  UNL1        0.0326
     41 H           4.5856    1.5294   -0.0837 H       1  UNL1        0.0326
     42 H          -3.8890    2.2156    0.9707 H       1  UNL1        0.0356
     43 H          -4.0858    2.9742   -0.6264 H       1  UNL1        0.0356
     44 H          -2.8474   -0.8887    1.6007 H       1  UNL1        0.0674
     45 H          -3.7456    0.9595   -2.2199 H       1  UNL1        0.0637
     46 H          -5.8095   -0.3887   -2.4281 H       1  UNL1        0.0640
     47 H          -2.9536    5.0153    0.2231 H       1  UNL1        0.0234
     48 H          -4.3204    4.5852    1.2658 H       1  UNL1        0.0234
     49 H          -2.6587    4.2245    1.7785 H       1  UNL1        0.0234
     50 H           6.4701    1.1404    1.4585 H       1  UNL1        0.0620
     51 H           5.6959   -1.5287   -1.8372 H       1  UNL1        0.0620
     52 H           8.7237    0.1618    1.7127 H       1  UNL1        0.0618
     53 H           7.9523   -2.4987   -1.5724 H       1  UNL1        0.0618
     54 H           9.4703   -1.6579    0.2007 H       1  UNL1        0.0618
     55 H          -6.8740   -3.6093    1.2769 H       1  UNL1        0.1255
@<TRIPOS>BOND
     1     1    14    2
     2     2    19   ar
     3     2    28   ar
     4     3     9    1
     5     3    10    1
     6     3    11    1
     7     4     6    1
     8     4    13    1
     9     4    14   am
    10     5    22   ar
    11     5    28   ar
    12     6     7    1
    13     6     8    1
    14     6    29    1
    15     7     9    1
    16     7    30    1
    17     7    31    1
    18     8    10    1
    19     8    32    1
    20     8    33    1
    21     9    34    1
    22     9    35    1
    23    10    36    1
    24    10    37    1
    25    11    12    1
    26    11    38    1
    27    11    39    1
    28    12    16    1
    29    12    40    1
    30    12    41    1
    31    13    17   ar
    32    13    18   ar
    33    14    15    1
    34    15    21    1
    35    15    42    1
    36    15    43    1
    37    16    23   ar
    38    16    24   ar
    39    17    19   ar
    40    17    44    1
    41    18    20   ar
    42    18    45    1
    43    19    22   ar
    44    20    22   ar
    45    20    46    1
    46    21    47    1
    47    21    48    1
    48    21    49    1
    49    23    25   ar
    50    23    50    1
    51    24    26   ar
    52    24    51    1
    53    25    27   ar
    54    25    52    1
    55    26    27   ar
    56    26    53    1
    57    27    54    1
    58    28    55    1
@<TRIPOS>MOLECULE
527009
 57 59 0 0 0
SMALL
GASTEIGER

@<TRIPOS>ATOM
      1 O          -4.4251   -2.9187   -0.1041 O.2     1  UNL1       -0.2753
      2 O           8.3788   -0.3185    0.0022 O.3     1  UNL1       -0.4951
      3 N           0.5988   -0.1324   -0.4316 N.3     1  UNL1       -0.3019
      4 N          -3.5805   -0.7042   -0.0633 N.am    1  UNL1       -0.2683
      5 C          -2.1812   -1.0178   -0.2119 C.3     1  UNL1        0.0334
      6 C          -1.3783   -0.5394    0.9983 C.3     1  UNL1       -0.0210
      7 C          -1.6189   -0.4045   -1.4940 C.3     1  UNL1       -0.0210
      8 C           0.1197   -0.7764    0.7993 C.3     1  UNL1        0.0006
      9 C          -0.1127   -0.6447   -1.6107 C.3     1  UNL1        0.0006
     10 C           2.0412   -0.3244   -0.5813 C.3     1  UNL1        0.0029
     11 C           2.8030    0.3219    0.5765 C.3     1  UNL1       -0.0149
     12 C          -3.9717    0.6992    0.0497 C.ar    1  UNL1        0.0366
     13 C          -4.6016   -1.7005   -0.0214 C.2     1  UNL1        0.2198
     14 C           4.2932    0.1505    0.4227 C.ar    1  UNL1       -0.0459
     15 C          -6.0242   -1.1601    0.0931 C.3     1  UNL1        0.0217
     16 C          -4.0278    1.2405    1.2992 C.ar    1  UNL1       -0.0403
     17 C          -4.2525    1.3707   -1.1027 C.ar    1  UNL1       -0.0403
     18 C           4.9104   -0.9639    0.9698 C.ar    1  UNL1       -0.0551
     19 C           5.0214    1.1111   -0.2627 C.ar    1  UNL1       -0.0551
     20 C          -7.0709   -2.2624    0.1489 C.3     1  UNL1       -0.0570
     21 C          -4.4003    2.5805    1.4068 C.ar    1  UNL1       -0.0600
     22 C          -4.6249    2.7107   -0.9952 C.ar    1  UNL1       -0.0600
     23 C          -4.6988    3.3155    0.2596 C.ar    1  UNL1       -0.0616
     24 C           6.2891   -1.1217    0.8280 C.ar    1  UNL1       -0.0197
     25 C           6.4000    0.9532   -0.4045 C.ar    1  UNL1       -0.0197
     26 C           7.0339   -0.1632    0.1408 C.ar    1  UNL1        0.1201
     27 C           9.0799    0.6988   -0.7118 C.3     1  UNL1        0.0788
     28 H          -2.0765   -2.1081   -0.2808 H       1  UNL1        0.0505
     29 H          -1.5109    0.5341    1.1735 H       1  UNL1        0.0296
     30 H          -1.7181   -1.0547    1.9050 H       1  UNL1        0.0296
     31 H          -1.7696    0.6802   -1.5252 H       1  UNL1        0.0296
     32 H          -2.1290   -0.8228   -2.3703 H       1  UNL1        0.0296
     33 H           0.5928   -0.3609    1.6926 H       1  UNL1        0.0427
     34 H           0.3256   -1.8548    0.7862 H       1  UNL1        0.0427
     35 H           0.0788   -1.7172   -1.7478 H       1  UNL1        0.0427
     36 H           0.2449   -0.1331   -2.5128 H       1  UNL1        0.0427
     37 H           2.2908   -1.3919   -0.6527 H       1  UNL1        0.0430
     38 H           2.3742    0.1398   -1.5190 H       1  UNL1        0.0430
     39 H           2.5607    1.3909    0.6440 H       1  UNL1        0.0326
     40 H           2.5421   -0.1072    1.5490 H       1  UNL1        0.0326
     41 H          -6.1178   -0.5658    1.0070 H       1  UNL1        0.0356
     42 H          -6.2446   -0.5299   -0.7739 H       1  UNL1        0.0356
     43 H          -3.8087    0.6688    2.1949 H       1  UNL1        0.0636
     44 H          -4.2086    0.9008   -2.0795 H       1  UNL1        0.0636
     45 H           4.3392   -1.7176    1.5046 H       1  UNL1        0.0621
     46 H           4.5353    1.9826   -0.6921 H       1  UNL1        0.0621
     47 H          -7.0424   -2.8787   -0.7559 H       1  UNL1        0.0234
     48 H          -6.9053   -2.9192    1.0093 H       1  UNL1        0.0234
     49 H          -8.0731   -1.8315    0.2362 H       1  UNL1        0.0234
     50 H          -4.4609    3.0504    2.3840 H       1  UNL1        0.0618
     51 H          -4.8603    3.2822   -1.8883 H       1  UNL1        0.0618
     52 H          -4.9903    4.3584    0.3434 H       1  UNL1        0.0618
     53 H           6.7772   -1.9939    1.2543 H       1  UNL1        0.0654
     54 H           6.9173    1.7348   -0.9503 H       1  UNL1        0.0654
     55 H           9.0155    1.6657   -0.2014 H       1  UNL1        0.0660
     56 H          10.1372    0.4142   -0.7252 H       1  UNL1        0.0660
     57 H           8.7513    0.7573   -1.7550 H       1  UNL1        0.0660
@<TRIPOS>BOND
     1     1    13    2
     2     2    26    1
     3     2    27    1
     4     3     8    1
     5     3     9    1
     6     3    10    1
     7     4     5    1
     8     4    12    1
     9     4    13   am
    10     5     6    1
    11     5     7    1
    12     5    28    1
    13     6     8    1
    14     6    29    1
    15     6    30    1
    16     7     9    1
    17     7    31    1
    18     7    32    1
    19     8    33    1
    20     8    34    1
    21     9    35    1
    22     9    36    1
    23    10    11    1
    24    10    37    1
    25    10    38    1
    26    11    14    1
    27    11    39    1
    28    11    40    1
    29    12    16   ar
    30    12    17   ar
    31    13    15    1
    32    14    18   ar
    33    14    19   ar
    34    15    20    1
    35    15    41    1
    36    15    42    1
    37    16    21   ar
    38    16    43    1
    39    17    22   ar
    40    17    44    1
    41    18    24   ar
    42    18    45    1
    43    19    25   ar
    44    19    46    1
    45    20    47    1
    46    20    48    1
    47    20    49    1
    48    21    23   ar
    49    21    50    1
    50    22    23   ar
    51    22    51    1
    52    23    52    1
    53    24    26   ar
    54    24    53    1
    55    25    26   ar
    56    25    54    1
    57    27    55    1
    58    27    56    1
    59    27    57    1
@<TRIPOS>MOLECULE
13653605
 57 59 0 0 0
SMALL
GASTEIGER

@<TRIPOS>ATOM
      1 O          -1.9323    2.0721   -0.1300 O.2     1  UNL1       -0.2727
      2 O          -4.4022    2.7442    0.1286 O.3     1  UNL1       -0.3708
      3 N           1.9377   -0.0146   -0.3552 N.3     1  UNL1       -0.3019
      4 N          -2.2803   -0.2744   -0.0903 N.am    1  UNL1       -0.2664
      5 C          -0.9028   -0.6918   -0.1714 C.3     1  UNL1        0.0335
      6 C          -0.2622   -0.2057   -1.4712 C.3     1  UNL1       -0.0210
      7 C          -0.1035   -0.1891    1.0313 C.3     1  UNL1       -0.0210
      8 C           1.2262   -0.5552   -1.5217 C.3     1  UNL1        0.0006
      9 C           1.3793   -0.5405    0.8982 C.3     1  UNL1        0.0006
     10 C           3.3668   -0.3141   -0.4438 C.3     1  UNL1        0.0029
     11 C           4.1898    0.7042    0.3461 C.3     1  UNL1       -0.0149
     12 C          -3.3152   -1.3025   -0.0189 C.ar    1  UNL1        0.0366
     13 C          -2.6799    1.0910   -0.0765 C.2     1  UNL1        0.2458
     14 C           5.6672    0.4199    0.2445 C.ar    1  UNL1       -0.0462
     15 C          -4.1678    1.3532    0.0699 C.3     1  UNL1        0.1242
     16 C          -3.8832   -1.8028   -1.1906 C.ar    1  UNL1       -0.0403
     17 C          -3.7353   -1.7846    1.2208 C.ar    1  UNL1       -0.0403
     18 C           6.2822   -0.4164    1.1763 C.ar    1  UNL1       -0.0585
     19 C           6.4190    0.9927   -0.7815 C.ar    1  UNL1       -0.0585
     20 C          -4.8712   -2.7849   -1.1227 C.ar    1  UNL1       -0.0600
     21 C          -4.7233   -2.7669    1.2886 C.ar    1  UNL1       -0.0600
     22 C          -5.2913   -3.2670    0.1168 C.ar    1  UNL1       -0.0616
     23 C           7.6488   -0.6797    1.0824 C.ar    1  UNL1       -0.0615
     24 C           7.7856    0.7292   -0.8755 C.ar    1  UNL1       -0.0615
     25 C           8.4004   -0.1070    0.0565 C.ar    1  UNL1       -0.0617
     26 C          -5.7881    3.0440    0.2665 C.3     1  UNL1        0.0455
     27 C          -5.9644    4.5465    0.3226 C.3     1  UNL1       -0.0416
     28 H          -0.8696   -1.7904   -0.1662 H       1  UNL1        0.0505
     29 H          -0.7724   -0.6588   -2.3302 H       1  UNL1        0.0296
     30 H          -0.3658    0.8786   -1.5924 H       1  UNL1        0.0296
     31 H          -0.1922    0.8968    1.1501 H       1  UNL1        0.0296
     32 H          -0.5021   -0.6307    1.9532 H       1  UNL1        0.0296
     33 H           1.6397   -0.1287   -2.4439 H       1  UNL1        0.0427
     34 H           1.3484   -1.6447   -1.5827 H       1  UNL1        0.0427
     35 H           1.8976   -0.1148    1.7643 H       1  UNL1        0.0427
     36 H           1.5004   -1.6306    0.9537 H       1  UNL1        0.0427
     37 H           3.5860   -1.3418   -0.1241 H       1  UNL1        0.0430
     38 H           3.6958   -0.2509   -1.4906 H       1  UNL1        0.0430
     39 H           3.9895    1.7199   -0.0205 H       1  UNL1        0.0326
     40 H           3.9086    0.7115    1.4060 H       1  UNL1        0.0326
     41 H          -4.5288    0.8968    0.9966 H       1  UNL1        0.0657
     42 H          -4.6935    0.9377   -0.7957 H       1  UNL1        0.0657
     43 H          -3.5624   -1.4337   -2.1613 H       1  UNL1        0.0636
     44 H          -3.2985   -1.4018    2.1394 H       1  UNL1        0.0636
     45 H           5.7067   -0.8703    1.9788 H       1  UNL1        0.0620
     46 H           5.9510    1.6442   -1.5146 H       1  UNL1        0.0620
     47 H          -5.3135   -3.1742   -2.0350 H       1  UNL1        0.0618
     48 H          -5.0505   -3.1423    2.2538 H       1  UNL1        0.0618
     49 H          -6.0607   -4.0317    0.1697 H       1  UNL1        0.0618
     50 H           8.1274   -1.3312    1.8076 H       1  UNL1        0.0618
     51 H           8.3710    1.1747   -1.6746 H       1  UNL1        0.0618
     52 H           9.4644   -0.3122   -0.0169 H       1  UNL1        0.0618
     53 H          -6.3404    2.6384   -0.5885 H       1  UNL1        0.0557
     54 H          -6.1740    2.5918    1.1870 H       1  UNL1        0.0557
     55 H          -7.0197    4.8127    0.4285 H       1  UNL1        0.0252
     56 H          -5.5711    5.0149   -0.5856 H       1  UNL1        0.0252
     57 H          -5.4070    4.9687    1.1652 H       1  UNL1        0.0252
@<TRIPOS>BOND
     1     1    13    2
     2     2    15    1
     3     2    26    1
     4     3     8    1
     5     3     9    1
     6     3    10    1
     7     4     5    1
     8     4    12    1
     9     4    13   am
    10     5     6    1
    11     5     7    1
    12     5    28    1
    13     6     8    1
    14     6    29    1
    15     6    30    1
    16     7     9    1
    17     7    31    1
    18     7    32    1
    19     8    33    1
    20     8    34    1
    21     9    35    1
    22     9    36    1
    23    10    11    1
    24    10    37    1
    25    10    38    1
    26    11    14    1
    27    11    39    1
    28    11    40    1
    29    12    16   ar
    30    12    17   ar
    31    13    15    1
    32    14    18   ar
    33    14    19   ar
    34    15    41    1
    35    15    42    1
    36    16    20   ar
    37    16    43    1
    38    17    21   ar
    39    17    44    1
    40    18    23   ar
    41    18    45    1
    42    19    24   ar
    43    19    46    1
    44    20    22   ar
    45    20    47    1
    46    21    22   ar
    47    21    48    1
    48    22    49    1
    49    23    25   ar
    50    23    50    1
    51    24    25   ar
    52    24    51    1
    53    25    52    1
    54    26    27    1
    55    26    53    1
    56    26    54    1
    57    27    55    1
    58    27    56    1
    59    27    57    1
@<TRIPOS>MOLECULE
137699935
 54 56 0 0 0
SMALL
GASTEIGER

@<TRIPOS>ATOM
      1 F          -3.9405   -4.9062    0.0882 F       1  UNL1       -0.2055
      2 O          -4.9454    1.2197    0.1435 O.2     1  UNL1       -0.2727
      3 O          -4.5109    3.7497   -0.0259 O.3     1  UNL1       -0.3738
      4 N           1.5327    0.3686    0.2847 N.3     1  UNL1       -0.3019
      5 N          -2.6838    0.5374   -0.0653 N.am    1  UNL1       -0.2664
      6 C          -1.3000    0.9196   -0.1978 C.3     1  UNL1        0.0335
      7 C          -0.6538    1.1099    1.1742 C.3     1  UNL1       -0.0210
      8 C          -0.5190   -0.1135   -1.0105 C.3     1  UNL1       -0.0210
      9 C           0.8395    1.4162    1.0472 C.3     1  UNL1        0.0006
     10 C           0.9696    0.2342   -1.0660 C.3     1  UNL1        0.0006
     11 C           2.9665    0.6504    0.2155 C.3     1  UNL1        0.0029
     12 C           3.7682   -0.6357    0.0125 C.3     1  UNL1       -0.0149
     13 C          -3.0119   -0.8845   -0.0254 C.ar    1  UNL1        0.0368
     14 C          -3.7440    1.4804    0.0287 C.2     1  UNL1        0.2458
     15 C           5.2503   -0.3619   -0.0385 C.ar    1  UNL1       -0.0462
     16 C          -3.3531    2.9434   -0.0745 C.3     1  UNL1        0.1238
     17 C          -3.8525   -1.4338   -0.9936 C.ar    1  UNL1       -0.0376
     18 C          -2.4853   -1.6939    0.9812 C.ar    1  UNL1       -0.0376
     19 C           5.8676   -0.0889   -1.2592 C.ar    1  UNL1       -0.0585
     20 C           6.0036   -0.3815    1.1351 C.ar    1  UNL1       -0.0585
     21 C          -4.1667   -2.7922   -0.9552 C.ar    1  UNL1       -0.0247
     22 C          -2.7994   -3.0522    1.0197 C.ar    1  UNL1       -0.0247
     23 C          -3.6400   -3.6015    0.0516 C.ar    1  UNL1        0.1235
     24 C           7.2386    0.1642   -1.3061 C.ar    1  UNL1       -0.0615
     25 C           7.3745   -0.1284    1.0882 C.ar    1  UNL1       -0.0615
     26 C           7.9920    0.1444   -0.1325 C.ar    1  UNL1       -0.0617
     27 C          -4.1969    5.1362   -0.1194 C.3     1  UNL1        0.0371
     28 H          -1.2270    1.8667   -0.7404 H       1  UNL1        0.0505
     29 H          -1.1388    1.9284    1.7174 H       1  UNL1        0.0296
     30 H          -0.7476    0.2378    1.8190 H       1  UNL1        0.0296
     31 H          -0.9158   -0.1655   -2.0325 H       1  UNL1        0.0296
     32 H          -0.5765   -1.1260   -0.6005 H       1  UNL1        0.0296
     33 H           0.9767    2.3980    0.5749 H       1  UNL1        0.0427
     34 H           1.2568    1.4814    2.0597 H       1  UNL1        0.0427
     35 H           1.4751   -0.5635   -1.6212 H       1  UNL1        0.0427
     36 H           1.1047    1.1607   -1.6400 H       1  UNL1        0.0427
     37 H           3.1964    1.3931   -0.5604 H       1  UNL1        0.0430
     38 H           3.3045    1.0941    1.1625 H       1  UNL1        0.0430
     39 H           3.4768   -1.1483   -0.9119 H       1  UNL1        0.0326
     40 H           3.5579   -1.3456    0.8237 H       1  UNL1        0.0326
     41 H          -2.6922    3.2054    0.7555 H       1  UNL1        0.0657
     42 H          -2.8562    3.1133   -1.0347 H       1  UNL1        0.0657
     43 H          -4.2636   -0.8171   -1.7887 H       1  UNL1        0.0637
     44 H          -1.8717   -1.3130    1.7836 H       1  UNL1        0.0637
     45 H           5.2908   -0.0686   -2.1800 H       1  UNL1        0.0620
     46 H           5.5337   -0.5911    2.0923 H       1  UNL1        0.0620
     47 H          -4.8195   -3.2206   -1.7099 H       1  UNL1        0.0647
     48 H          -2.3986   -3.6812    1.8092 H       1  UNL1        0.0647
     49 H           7.7194    0.3773   -2.2564 H       1  UNL1        0.0618
     50 H           7.9612   -0.1432    2.0021 H       1  UNL1        0.0618
     51 H           9.0594    0.3417   -0.1689 H       1  UNL1        0.0618
     52 H          -5.1305    5.7032   -0.0755 H       1  UNL1        0.0524
     53 H          -3.6998    5.3524   -1.0700 H       1  UNL1        0.0524
     54 H          -3.5616    5.4414    0.7176 H       1  UNL1        0.0524
@<TRIPOS>BOND
     1     1    23    1
     2     2    14    2
     3     3    16    1
     4     3    27    1
     5     4     9    1
     6     4    10    1
     7     4    11    1
     8     5     6    1
     9     5    13    1
    10     5    14   am
    11     6     7    1
    12     6     8    1
    13     6    28    1
    14     7     9    1
    15     7    29    1
    16     7    30    1
    17     8    10    1
    18     8    31    1
    19     8    32    1
    20     9    33    1
    21     9    34    1
    22    10    35    1
    23    10    36    1
    24    11    12    1
    25    11    37    1
    26    11    38    1
    27    12    15    1
    28    12    39    1
    29    12    40    1
    30    13    17   ar
    31    13    18   ar
    32    14    16    1
    33    15    19   ar
    34    15    20   ar
    35    16    41    1
    36    16    42    1
    37    17    21   ar
    38    17    43    1
    39    18    22   ar
    40    18    44    1
    41    19    24   ar
    42    19    45    1
    43    20    25   ar
    44    20    46    1
    45    21    23   ar
    46    21    47    1
    47    22    23   ar
    48    22    48    1
    49    24    26   ar
    50    24    49    1
    51    25    26   ar
    52    25    50    1
    53    26    51    1
    54    27    52    1
    55    27    53    1
    56    27    54    1
@<TRIPOS>MOLECULE
137699967
 54 56 0 0 0
SMALL
GASTEIGER

@<TRIPOS>ATOM
      1 O          -5.1458    0.7530    0.1467 O.2     1  UNL1       -0.2727
      2 O          -4.8499    3.3017   -0.0393 O.3     1  UNL1       -0.3738
      3 N           1.3691    0.2568    0.2857 N.3     1  UNL1       -0.3019
      4 N          -2.8505    0.1934   -0.0604 N.am    1  UNL1       -0.2664
      5 C          -1.4898    0.6496   -0.1970 C.3     1  UNL1        0.0335
      6 C          -0.8538    0.8835    1.1730 C.3     1  UNL1       -0.0210
      7 C          -0.6544   -0.3446   -1.0041 C.3     1  UNL1       -0.0210
      8 C           0.6206    1.2699    1.0423 C.3     1  UNL1        0.0006
      9 C           0.8131    0.0832   -1.0634 C.3     1  UNL1        0.0006
     10 C           2.7854    0.6158    0.2130 C.3     1  UNL1        0.0029
     11 C           3.6558   -0.6260    0.0173 C.3     1  UNL1       -0.0149
     12 C          -3.1007   -1.2440   -0.0112 C.ar    1  UNL1        0.0366
     13 C          -3.9605    1.0779    0.0289 C.2     1  UNL1        0.2458
     14 C           5.1207   -0.2722   -0.0373 C.ar    1  UNL1       -0.0462
     15 C          -3.6499    2.5593   -0.0841 C.3     1  UNL1        0.1238
     16 C          -2.5283   -2.0175    0.9985 C.ar    1  UNL1       -0.0403
     17 C          -3.9111   -1.8440   -0.9749 C.ar    1  UNL1       -0.0403
     18 C           5.7213    0.0262   -1.2604 C.ar    1  UNL1       -0.0585
     19 C           5.8750   -0.2433    1.1355 C.ar    1  UNL1       -0.0585
     20 C          -2.7661   -3.3911    1.0444 C.ar    1  UNL1       -0.0600
     21 C          -4.1489   -3.2178   -0.9291 C.ar    1  UNL1       -0.0600
     22 C          -3.5765   -3.9913    0.0806 C.ar    1  UNL1       -0.0616
     23 C           7.0764    0.3533   -1.3105 C.ar    1  UNL1       -0.0615
     24 C           7.2300    0.0838    1.0854 C.ar    1  UNL1       -0.0615
     25 C           7.8307    0.3820   -0.1377 C.ar    1  UNL1       -0.0617
     26 C          -4.6119    4.7026   -0.1420 C.3     1  UNL1        0.0371
     27 H          -1.4689    1.5958   -0.7457 H       1  UNL1        0.0505
     28 H          -0.8995    0.0120    1.8237 H       1  UNL1        0.0296
     29 H          -1.3821    1.6780    1.7115 H       1  UNL1        0.0296
     30 H          -1.0485   -0.4246   -2.0252 H       1  UNL1        0.0296
     31 H          -0.6561   -1.3561   -0.5877 H       1  UNL1        0.0296
     32 H           0.7037    2.2547    0.5636 H       1  UNL1        0.0427
     33 H           1.0345    1.3642    2.0539 H       1  UNL1        0.0427
     34 H           1.3609   -0.6893   -1.6142 H       1  UNL1        0.0427
     35 H           0.8971    1.0120   -1.6435 H       1  UNL1        0.0427
     36 H           2.9739    1.3649   -0.5678 H       1  UNL1        0.0430
     37 H           3.0995    1.0832    1.1567 H       1  UNL1        0.0430
     38 H           3.3920   -1.1597   -0.9036 H       1  UNL1        0.0326
     39 H           3.4851   -1.3411    0.8332 H       1  UNL1        0.0326
     40 H          -3.0036    2.8622    0.7435 H       1  UNL1        0.0657
     41 H          -3.1638    2.7499   -1.0459 H       1  UNL1        0.0657
     42 H          -1.9355   -1.5990    1.7978 H       1  UNL1        0.0636
     43 H          -4.3569   -1.2554   -1.7725 H       1  UNL1        0.0636
     44 H           5.1434    0.0091   -2.1807 H       1  UNL1        0.0620
     45 H           5.4180   -0.4720    2.0946 H       1  UNL1        0.0620
     46 H          -2.3300   -3.9924    1.8369 H       1  UNL1        0.0618
     47 H          -4.7787   -3.6853   -1.6803 H       1  UNL1        0.0618
     48 H          -3.7635   -5.0605    0.1177 H       1  UNL1        0.0618
     49 H           7.5441    0.5861   -2.2627 H       1  UNL1        0.0618
     50 H           7.8173    0.1068    1.9987 H       1  UNL1        0.0618
     51 H           8.8857    0.6369   -0.1766 H       1  UNL1        0.0618
     52 H          -5.5750    5.2182   -0.1005 H       1  UNL1        0.0524
     53 H          -4.1281    4.9395   -1.0944 H       1  UNL1        0.0524
     54 H          -3.9935    5.0473    0.6924 H       1  UNL1        0.0524
@<TRIPOS>BOND
     1     1    13    2
     2     2    15    1
     3     2    26    1
     4     3     8    1
     5     3     9    1
     6     3    10    1
     7     4     5    1
     8     4    12    1
     9     4    13   am
    10     5     6    1
    11     5     7    1
    12     5    27    1
    13     6     8    1
    14     6    28    1
    15     6    29    1
    16     7     9    1
    17     7    30    1
    18     7    31    1
    19     8    32    1
    20     8    33    1
    21     9    34    1
    22     9    35    1
    23    10    11    1
    24    10    36    1
    25    10    37    1
    26    11    14    1
    27    11    38    1
    28    11    39    1
    29    12    16   ar
    30    12    17   ar
    31    13    15    1
    32    14    18   ar
    33    14    19   ar
    34    15    40    1
    35    15    41    1
    36    16    20   ar
    37    16    42    1
    38    17    21   ar
    39    17    43    1
    40    18    23   ar
    41    18    44    1
    42    19    24   ar
    43    19    45    1
    44    20    22   ar
    45    20    46    1
    46    21    22   ar
    47    21    47    1
    48    22    48    1
    49    23    25   ar
    50    23    49    1
    51    24    25   ar
    52    24    50    1
    53    25    51    1
    54    26    52    1
    55    26    53    1
    56    26    54    1
@<TRIPOS>MOLECULE
137699973
 54 57 0 0 0
SMALL
GASTEIGER

@<TRIPOS>ATOM
      1 O          -2.1304    2.4195   -1.0603 O.2     1  UNL1       -0.2749
      2 N          -2.5830    0.2016   -0.3299 N.am    1  UNL1       -0.2681
      3 N           1.6458    0.0304   -0.4613 N.3     1  UNL1       -0.3019
      4 C          -4.1091    2.1111    0.1151 C.3     1  UNL1        0.0361
      5 C          -4.3576    1.8854    1.5661 C.3     1  UNL1       -0.0412
      6 C          -4.0391    3.2603    1.0598 C.3     1  UNL1       -0.0412
      7 C          -1.2504   -0.3467   -0.2866 C.3     1  UNL1        0.0334
      8 C          -0.4373    0.2719    0.8509 C.3     1  UNL1       -0.0210
      9 C          -0.5332   -0.1408   -1.6206 C.3     1  UNL1       -0.0210
     10 C          -2.8295    1.5985   -0.4748 C.2     1  UNL1        0.2231
     11 C           1.0078   -0.2296    0.8366 C.3     1  UNL1        0.0006
     12 C           0.9154   -0.6276   -1.5535 C.3     1  UNL1        0.0006
     13 C           3.0412   -0.4081   -0.4424 C.3     1  UNL1        0.0029
     14 C          -3.7001   -0.7180   -0.1363 C.ar    1  UNL1        0.0366
     15 C           3.9381    0.6468    0.2064 C.3     1  UNL1       -0.0149
     16 C          -3.7675   -1.5009    1.0160 C.ar    1  UNL1       -0.0403
     17 C          -4.6994   -0.8148   -1.1047 C.ar    1  UNL1       -0.0403
     18 C           5.3834    0.2167    0.2125 C.ar    1  UNL1       -0.0462
     19 C          -4.8340   -2.3807    1.2002 C.ar    1  UNL1       -0.0600
     20 C          -5.7661   -1.6947   -0.9206 C.ar    1  UNL1       -0.0600
     21 C          -5.8334   -2.4776    0.2319 C.ar    1  UNL1       -0.0616
     22 C           5.8913   -0.5073    1.2913 C.ar    1  UNL1       -0.0585
     23 C           6.2123    0.5428   -0.8607 C.ar    1  UNL1       -0.0585
     24 C           7.2283   -0.9049    1.2967 C.ar    1  UNL1       -0.0615
     25 C           7.5492    0.1452   -0.8553 C.ar    1  UNL1       -0.0615
     26 C           8.0573   -0.5786    0.2235 C.ar    1  UNL1       -0.0617
     27 H          -4.9597    2.1067   -0.5585 H       1  UNL1        0.0394
     28 H          -3.6024    1.4037    2.1753 H       1  UNL1        0.0273
     29 H          -5.3753    1.6857    1.8790 H       1  UNL1        0.0273
     30 H          -4.8428    3.9863    1.0359 H       1  UNL1        0.0273
     31 H          -3.0715    3.6759    1.3137 H       1  UNL1        0.0273
     32 H          -1.3083   -1.4302   -0.1146 H       1  UNL1        0.0505
     33 H          -0.8980    0.0320    1.8169 H       1  UNL1        0.0296
     34 H          -0.4296    1.3670    0.7781 H       1  UNL1        0.0296
     35 H          -0.5207    0.9124   -1.9195 H       1  UNL1        0.0296
     36 H          -1.0638   -0.6788   -2.4161 H       1  UNL1        0.0296
     37 H           1.0222   -1.3022    1.0724 H       1  UNL1        0.0427
     38 H           1.5423    0.2844    1.6427 H       1  UNL1        0.0427
     39 H           1.3913   -0.3978   -2.5148 H       1  UNL1        0.0427
     40 H           0.9338   -1.7189   -1.4331 H       1  UNL1        0.0427
     41 H           3.1523   -1.3851    0.0471 H       1  UNL1        0.0430
     42 H           3.4013   -0.5476   -1.4714 H       1  UNL1        0.0430
     43 H           3.6319    0.8534    1.2389 H       1  UNL1        0.0326
     44 H           3.8459    1.6026   -0.3267 H       1  UNL1        0.0326
     45 H          -3.0026   -1.4323    1.7847 H       1  UNL1        0.0636
     46 H          -4.6555   -0.2162   -2.0108 H       1  UNL1        0.0636
     47 H          -4.8876   -2.9888    2.0985 H       1  UNL1        0.0618
     48 H          -6.5434   -1.7713   -1.6753 H       1  UNL1        0.0618
     49 H          -6.6640   -3.1625    0.3754 H       1  UNL1        0.0618
     50 H           5.2546   -0.7692    2.1322 H       1  UNL1        0.0620
     51 H           5.8278    1.1048   -1.7077 H       1  UNL1        0.0620
     52 H           7.6238   -1.4690    2.1363 H       1  UNL1        0.0618
     53 H           8.1947    0.3987   -1.6912 H       1  UNL1        0.0618
     54 H           9.0982   -0.8884    0.2276 H       1  UNL1        0.0618
@<TRIPOS>BOND
     1     1    10    2
     2     2     7    1
     3     2    10   am
     4     2    14    1
     5     3    11    1
     6     3    12    1
     7     3    13    1
     8     4     5    1
     9     4     6    1
    10     4    10    1
    11     4    27    1
    12     5     6    1
    13     5    28    1
    14     5    29    1
    15     6    30    1
    16     6    31    1
    17     7     8    1
    18     7     9    1
    19     7    32    1
    20     8    11    1
    21     8    33    1
    22     8    34    1
    23     9    12    1
    24     9    35    1
    25     9    36    1
    26    11    37    1
    27    11    38    1
    28    12    39    1
    29    12    40    1
    30    13    15    1
    31    13    41    1
    32    13    42    1
    33    14    16   ar
    34    14    17   ar
    35    15    18    1
    36    15    43    1
    37    15    44    1
    38    16    19   ar
    39    16    45    1
    40    17    20   ar
    41    17    46    1
    42    18    22   ar
    43    18    23   ar
    44    19    21   ar
    45    19    47    1
    46    20    21   ar
    47    20    48    1
    48    21    49    1
    49    22    24   ar
    50    22    50    1
    51    23    25   ar
    52    23    51    1
    53    24    26   ar
    54    24    52    1
    55    25    26   ar
    56    25    53    1
    57    26    54    1
@<TRIPOS>MOLECULE
137700047
 59 61 0 0 0
SMALL
GASTEIGER

@<TRIPOS>ATOM
      1 F          -6.5619   -3.3319    0.8209 F       1  UNL1       -0.2055
      2 O          -1.7818    2.0643   -1.5201 O.2     1  UNL1       -0.2752
      3 N           1.9656   -0.2080   -0.5024 N.3     1  UNL1       -0.3019
      4 N          -2.2630    0.0072   -0.4561 N.am    1  UNL1       -0.2683
      5 C          -0.9353   -0.5336   -0.3038 C.3     1  UNL1        0.0334
      6 C          -0.1309    0.2635    0.7234 C.3     1  UNL1       -0.0210
      7 C          -0.2010   -0.5600   -1.6440 C.3     1  UNL1       -0.0210
      8 C           1.3104   -0.2414    0.8126 C.3     1  UNL1        0.0006
      9 C           1.2429   -1.0367   -1.4771 C.3     1  UNL1        0.0006
     10 C           3.3572   -0.6449   -0.3917 C.3     1  UNL1        0.0029
     11 C           4.2546    0.4993    0.0812 C.3     1  UNL1       -0.0149
     12 C          -2.5153    1.3633   -0.8183 C.2     1  UNL1        0.2200
     13 C          -3.3871   -0.8661   -0.1225 C.ar    1  UNL1        0.0367
     14 C          -3.8391    1.9337   -0.3123 C.3     1  UNL1        0.0245
     15 C           5.6963    0.0681    0.1784 C.ar    1  UNL1       -0.0462
     16 C          -3.8065    3.4419   -0.0485 C.3     1  UNL1       -0.0450
     17 C          -3.4616   -1.4555    1.1395 C.ar    1  UNL1       -0.0376
     18 C          -4.3854   -1.1095   -1.0660 C.ar    1  UNL1       -0.0376
     19 C          -2.7632    3.8292    1.0029 C.3     1  UNL1       -0.0555
     20 C           6.1859   -0.4661    1.3703 C.ar    1  UNL1       -0.0585
     21 C           6.5403    0.2036   -0.9237 C.ar    1  UNL1       -0.0585
     22 C          -4.5342   -2.2881    1.4582 C.ar    1  UNL1       -0.0247
     23 C          -5.4581   -1.9422   -0.7472 C.ar    1  UNL1       -0.0247
     24 C          -5.5325   -2.5314    0.5150 C.ar    1  UNL1        0.1235
     25 C          -2.7532    5.3301    1.2477 C.3     1  UNL1       -0.0653
     26 C           7.5197   -0.8648    1.4600 C.ar    1  UNL1       -0.0615
     27 C           7.8739   -0.1950   -0.8341 C.ar    1  UNL1       -0.0615
     28 C           8.3636   -0.7291    0.3578 C.ar    1  UNL1       -0.0617
     29 H          -1.0021   -1.5725    0.0470 H       1  UNL1        0.0505
     30 H          -0.6046    0.1936    1.7100 H       1  UNL1        0.0296
     31 H          -0.1129    1.3303    0.4665 H       1  UNL1        0.0296
     32 H          -0.1779    0.4277   -2.1160 H       1  UNL1        0.0296
     33 H          -0.7263   -1.2217   -2.3440 H       1  UNL1        0.0296
     34 H           1.3136   -1.2588    1.2262 H       1  UNL1        0.0427
     35 H           1.8394    0.3984    1.5271 H       1  UNL1        0.0427
     36 H           1.2514   -2.0921   -1.1741 H       1  UNL1        0.0427
     37 H           1.7318   -0.9753   -2.4572 H       1  UNL1        0.0427
     38 H           3.7282   -0.9582   -1.3777 H       1  UNL1        0.0430
     39 H           3.4549   -1.5258    0.2571 H       1  UNL1        0.0430
     40 H           3.9380    0.8790    1.0599 H       1  UNL1        0.0326
     41 H           4.1761    1.3518   -0.6067 H       1  UNL1        0.0326
     42 H          -4.6063    1.7263   -1.0664 H       1  UNL1        0.0358
     43 H          -4.1355    1.4463    0.6220 H       1  UNL1        0.0358
     44 H          -4.8009    3.7652    0.2823 H       1  UNL1        0.0270
     45 H          -3.5934    3.9726   -0.9846 H       1  UNL1        0.0270
     46 H          -2.6986   -1.2696    1.8903 H       1  UNL1        0.0637
     47 H          -4.3353   -0.6649   -2.0565 H       1  UNL1        0.0637
     48 H          -1.7602    3.5220    0.6892 H       1  UNL1        0.0263
     49 H          -2.9791    3.3121    1.9451 H       1  UNL1        0.0263
     50 H           5.5374   -0.5787    2.2351 H       1  UNL1        0.0620
     51 H           6.1701    0.6167   -1.8583 H       1  UNL1        0.0620
     52 H          -4.5936   -2.7455    2.4413 H       1  UNL1        0.0647
     53 H          -6.2344   -2.1337   -1.4821 H       1  UNL1        0.0647
     54 H          -3.7292    5.6764    1.6023 H       1  UNL1        0.0230
     55 H          -2.0063    5.5855    2.0059 H       1  UNL1        0.0230
     56 H          -2.5069    5.8752    0.3309 H       1  UNL1        0.0230
     57 H           7.9008   -1.2812    2.3878 H       1  UNL1        0.0618
     58 H           8.5311   -0.0900   -1.6924 H       1  UNL1        0.0618
     59 H           9.4020   -1.0397    0.4275 H       1  UNL1        0.0618
@<TRIPOS>BOND
     1     1    24    1
     2     2    12    2
     3     3     8    1
     4     3     9    1
     5     3    10    1
     6     4     5    1
     7     4    12   am
     8     4    13    1
     9     5     6    1
    10     5     7    1
    11     5    29    1
    12     6     8    1
    13     6    30    1
    14     6    31    1
    15     7     9    1
    16     7    32    1
    17     7    33    1
    18     8    34    1
    19     8    35    1
    20     9    36    1
    21     9    37    1
    22    10    11    1
    23    10    38    1
    24    10    39    1
    25    11    15    1
    26    11    40    1
    27    11    41    1
    28    12    14    1
    29    13    17   ar
    30    13    18   ar
    31    14    16    1
    32    14    42    1
    33    14    43    1
    34    15    20   ar
    35    15    21   ar
    36    16    19    1
    37    16    44    1
    38    16    45    1
    39    17    22   ar
    40    17    46    1
    41    18    23   ar
    42    18    47    1
    43    19    25    1
    44    19    48    1
    45    19    49    1
    46    20    26   ar
    47    20    50    1
    48    21    27   ar
    49    21    51    1
    50    22    24   ar
    51    22    52    1
    52    23    24   ar
    53    23    53    1
    54    25    54    1
    55    25    55    1
    56    25    56    1
    57    26    28   ar
    58    26    57    1
    59    27    28   ar
    60    27    58    1
    61    28    59    1
@<TRIPOS>MOLECULE
137700069
 59 61 0 0 0
SMALL
GASTEIGER

@<TRIPOS>ATOM
      1 O          -2.0767    2.3162   -0.3990 O.2     1  UNL1       -0.2750
      2 N           1.8402    0.0629   -0.3722 N.3     1  UNL1       -0.3019
      3 N          -2.3841   -0.0055   -0.0895 N.am    1  UNL1       -0.2681
      4 C          -1.0305   -0.4828   -0.2253 C.3     1  UNL1        0.0334
      5 C          -0.1998   -0.1414    1.0120 C.3     1  UNL1       -0.0210
      6 C          -0.3727    0.0943   -1.4784 C.3     1  UNL1       -0.0210
      7 C           1.2621   -0.5534    0.8300 C.3     1  UNL1        0.0006
      8 C           1.0952   -0.3244   -1.5782 C.3     1  UNL1        0.0006
      9 C           3.2513   -0.2992   -0.5046 C.3     1  UNL1        0.0029
     10 C          -2.7237    1.3709    0.0638 C.2     1  UNL1        0.2228
     11 C          -3.4660   -0.9846   -0.1105 C.ar    1  UNL1        0.0366
     12 C           4.1304    0.5935    0.3720 C.3     1  UNL1       -0.0149
     13 C          -3.9937    1.6754    0.8773 C.3     1  UNL1        0.0330
     14 C          -4.6946    2.9645    0.4036 C.3     1  UNL1       -0.0450
     15 C           5.5905    0.2451    0.2282 C.ar    1  UNL1       -0.0462
     16 C          -3.5980    1.8311    2.3482 C.3     1  UNL1       -0.0541
     17 C          -4.4557   -0.9094   -1.0904 C.ar    1  UNL1       -0.0403
     18 C          -3.5105   -1.9953    0.8497 C.ar    1  UNL1       -0.0403
     19 C          -5.1505    2.8809   -1.0481 C.3     1  UNL1       -0.0646
     20 C          -5.4901   -1.8452   -1.1104 C.ar    1  UNL1       -0.0600
     21 C          -4.5448   -2.9310    0.8300 C.ar    1  UNL1       -0.0600
     22 C           6.1663   -0.7081    1.0681 C.ar    1  UNL1       -0.0585
     23 C           6.3652    0.8762   -0.7450 C.ar    1  UNL1       -0.0585
     24 C          -5.5347   -2.8559   -0.1502 C.ar    1  UNL1       -0.0616
     25 C           7.5171   -1.0300    0.9350 C.ar    1  UNL1       -0.0615
     26 C           7.7157    0.5542   -0.8782 C.ar    1  UNL1       -0.0615
     27 C           8.2917   -0.3988   -0.0382 C.ar    1  UNL1       -0.0617
     28 H          -1.0448   -1.5760   -0.3354 H       1  UNL1        0.0505
     29 H          -0.6144   -0.6436    1.8946 H       1  UNL1        0.0296
     30 H          -0.2418    0.9352    1.2231 H       1  UNL1        0.0296
     31 H          -0.4021    1.1875   -1.4959 H       1  UNL1        0.0296
     32 H          -0.9120   -0.2427   -2.3723 H       1  UNL1        0.0296
     33 H           1.3270   -1.6485    0.7787 H       1  UNL1        0.0427
     34 H           1.8062   -0.2401    1.7275 H       1  UNL1        0.0427
     35 H           1.5256    0.1677   -2.4591 H       1  UNL1        0.0427
     36 H           1.1603   -1.4077   -1.7457 H       1  UNL1        0.0427
     37 H           3.5775   -0.1510   -1.5436 H       1  UNL1        0.0430
     38 H           3.4186   -1.3631   -0.2887 H       1  UNL1        0.0430
     39 H           3.8556    0.5117    1.4304 H       1  UNL1        0.0326
     40 H           3.9812    1.6490    0.1080 H       1  UNL1        0.0326
     41 H          -4.7302    0.8733    0.8204 H       1  UNL1        0.0391
     42 H          -5.5698    3.1577    1.0361 H       1  UNL1        0.0270
     43 H          -4.0268    3.8277    0.5149 H       1  UNL1        0.0270
     44 H          -2.8791    2.6470    2.4831 H       1  UNL1        0.0237
     45 H          -3.1283    0.9153    2.7233 H       1  UNL1        0.0237
     46 H          -4.4741    2.0398    2.9709 H       1  UNL1        0.0237
     47 H          -4.4277   -0.1333   -1.8506 H       1  UNL1        0.0636
     48 H          -2.7510   -2.0629    1.6238 H       1  UNL1        0.0636
     49 H          -4.3106    2.7598   -1.7378 H       1  UNL1        0.0230
     50 H          -5.8396    2.0429   -1.1921 H       1  UNL1        0.0230
     51 H          -5.6777    3.7992   -1.3265 H       1  UNL1        0.0230
     52 H          -6.2596   -1.7877   -1.8746 H       1  UNL1        0.0618
     53 H          -4.5805   -3.7171    1.5786 H       1  UNL1        0.0618
     54 H           5.5725   -1.2081    1.8287 H       1  UNL1        0.0620
     55 H           5.9275    1.6190   -1.4065 H       1  UNL1        0.0620
     56 H          -6.3400   -3.5844   -0.1656 H       1  UNL1        0.0618
     57 H           7.9655   -1.7725    1.5886 H       1  UNL1        0.0618
     58 H           8.3189    1.0452   -1.6363 H       1  UNL1        0.0618
     59 H           9.3433   -0.6496   -0.1421 H       1  UNL1        0.0618
@<TRIPOS>BOND
     1     1    10    2
     2     2     7    1
     3     2     8    1
     4     2     9    1
     5     3     4    1
     6     3    10   am
     7     3    11    1
     8     4     5    1
     9     4     6    1
    10     4    28    1
    11     5     7    1
    12     5    29    1
    13     5    30    1
    14     6     8    1
    15     6    31    1
    16     6    32    1
    17     7    33    1
    18     7    34    1
    19     8    35    1
    20     8    36    1
    21     9    12    1
    22     9    37    1
    23     9    38    1
    24    10    13    1
    25    11    17   ar
    26    11    18   ar
    27    12    15    1
    28    12    39    1
    29    12    40    1
    30    13    14    1
    31    13    16    1
    32    13    41    1
    33    14    19    1
    34    14    42    1
    35    14    43    1
    36    15    22   ar
    37    15    23   ar
    38    16    44    1
    39    16    45    1
    40    16    46    1
    41    17    20   ar
    42    17    47    1
    43    18    21   ar
    44    18    48    1
    45    19    49    1
    46    19    50    1
    47    19    51    1
    48    20    24   ar
    49    20    52    1
    50    21    24   ar
    51    21    53    1
    52    22    25   ar
    53    22    54    1
    54    23    26   ar
    55    23    55    1
    56    24    56    1
    57    25    27   ar
    58    25    57    1
    59    26    27   ar
    60    26    58    1
    61    27    59    1
@<TRIPOS>MOLECULE
157010657
 61 63 0 0 0
SMALL
GASTEIGER

@<TRIPOS>ATOM
      1 O          -1.5715   -0.5588   -2.4422 O.2     1  UNL1       -0.2724
      2 O          -3.8659   -1.7800   -2.4366 O.3     1  UNL1       -0.3826
      3 O          -6.3770   -3.9463    1.5599 O.3     1  UNL1       -0.3950
      4 N           2.3132    0.4170   -0.4700 N.3     1  UNL1       -0.3019
      5 N          -1.9118    0.7071   -0.5058 N.am    1  UNL1       -0.2662
      6 C          -0.5403    0.9689   -0.1476 C.3     1  UNL1        0.0335
      7 C           0.1177   -0.2812    0.4360 C.3     1  UNL1       -0.0210
      8 C           0.2558    1.4738   -1.3514 C.3     1  UNL1       -0.0210
      9 C           1.5997   -0.0363    0.7318 C.3     1  UNL1        0.0006
     10 C           1.7328    1.6608   -0.9948 C.3     1  UNL1        0.0006
     11 C           3.7360    0.5977   -0.1828 C.3     1  UNL1        0.0029
     12 C          -2.2745   -0.2508   -1.4735 C.2     1  UNL1        0.2486
     13 C           4.4495   -0.7540   -0.1732 C.3     1  UNL1       -0.0149
     14 C          -2.9607    1.4599    0.1564 C.ar    1  UNL1        0.0366
     15 C          -3.6359   -0.9364   -1.3130 C.3     1  UNL1        0.1315
     16 C          -3.7118   -1.7920   -0.0412 C.3     1  UNL1       -0.0162
     17 C           5.9185   -0.6020    0.1312 C.ar    1  UNL1       -0.0462
     18 C          -3.8262    2.2574   -0.5922 C.ar    1  UNL1       -0.0403
     19 C          -3.1028    1.3866    1.5421 C.ar    1  UNL1       -0.0403
     20 C          -5.0677   -2.4913    0.1499 C.3     1  UNL1       -0.0269
     21 C          -4.8340    2.9816    0.0447 C.ar    1  UNL1       -0.0600
     22 C          -4.1106    2.1107    2.1790 C.ar    1  UNL1       -0.0600
     23 C           6.8302   -0.4178   -0.9083 C.ar    1  UNL1       -0.0585
     24 C           6.3660   -0.6461    1.4516 C.ar    1  UNL1       -0.0585
     25 C          -4.9761    2.9082    1.4304 C.ar    1  UNL1       -0.0616
     26 C          -5.1040   -3.3315    1.4218 C.3     1  UNL1        0.0443
     27 C           8.1893   -0.2776   -0.6275 C.ar    1  UNL1       -0.0615
     28 C           7.7251   -0.5058    1.7325 C.ar    1  UNL1       -0.0615
     29 C           8.6368   -0.3217    0.6929 C.ar    1  UNL1       -0.0617
     30 H          -0.5151    1.7572    0.6175 H       1  UNL1        0.0505
     31 H           0.0297   -1.1291   -0.2556 H       1  UNL1        0.0296
     32 H          -0.3944   -0.5820    1.3581 H       1  UNL1        0.0296
     33 H          -0.1607    2.4263   -1.7017 H       1  UNL1        0.0296
     34 H           0.2159    0.7889   -2.2022 H       1  UNL1        0.0296
     35 H           2.0128   -0.9786    1.1056 H       1  UNL1        0.0427
     36 H           1.6913    0.6995    1.5419 H       1  UNL1        0.0427
     37 H           1.8373    2.4773   -0.2680 H       1  UNL1        0.0427
     38 H           2.2626    1.9666   -1.9055 H       1  UNL1        0.0427
     39 H           4.2019    1.2080   -0.9689 H       1  UNL1        0.0430
     40 H           3.8930    1.1426    0.7577 H       1  UNL1        0.0430
     41 H           4.0188   -1.4397    0.5654 H       1  UNL1        0.0326
     42 H           4.3292   -1.2529   -1.1443 H       1  UNL1        0.0326
     43 H          -4.4385   -0.1970   -1.3256 H       1  UNL1        0.0690
     44 H          -3.4938   -1.2001    0.8502 H       1  UNL1        0.0296
     45 H          -2.9334   -2.5656   -0.0886 H       1  UNL1        0.0296
     46 H          -3.7221    2.3302   -1.6718 H       1  UNL1        0.0636
     47 H          -2.4389    0.7681    2.1399 H       1  UNL1        0.0636
     48 H          -5.8702   -1.7442    0.1859 H       1  UNL1        0.0288
     49 H          -5.2936   -3.1345   -0.7091 H       1  UNL1        0.0288
     50 H          -5.5069    3.6038   -0.5380 H       1  UNL1        0.0618
     51 H          -4.2219    2.0529    3.2578 H       1  UNL1        0.0618
     52 H          -3.2069   -2.4950   -2.4147 H       1  UNL1        0.2104
     53 H           6.4936   -0.3801   -1.9409 H       1  UNL1        0.0620
     54 H           5.6651   -0.7870    2.2702 H       1  UNL1        0.0620
     55 H          -5.7607    3.4721    1.9264 H       1  UNL1        0.0618
     56 H          -4.3421   -4.1169    1.3870 H       1  UNL1        0.0557
     57 H          -4.9254   -2.7060    2.3024 H       1  UNL1        0.0557
     58 H           8.8991   -0.1337   -1.4368 H       1  UNL1        0.0618
     59 H           8.0735   -0.5395    2.7606 H       1  UNL1        0.0618
     60 H           9.6950   -0.2123    0.9116 H       1  UNL1        0.0618
     61 H          -6.3542   -4.4687    2.3798 H       1  UNL1        0.2094
@<TRIPOS>BOND
     1     1    12    2
     2     2    15    1
     3     2    52    1
     4     3    26    1
     5     3    61    1
     6     4     9    1
     7     4    10    1
     8     4    11    1
     9     5     6    1
    10     5    12   am
    11     5    14    1
    12     6     7    1
    13     6     8    1
    14     6    30    1
    15     7     9    1
    16     7    31    1
    17     7    32    1
    18     8    10    1
    19     8    33    1
    20     8    34    1
    21     9    35    1
    22     9    36    1
    23    10    37    1
    24    10    38    1
    25    11    13    1
    26    11    39    1
    27    11    40    1
    28    12    15    1
    29    13    17    1
    30    13    41    1
    31    13    42    1
    32    14    18   ar
    33    14    19   ar
    34    15    16    1
    35    15    43    1
    36    16    20    1
    37    16    44    1
    38    16    45    1
    39    17    23   ar
    40    17    24   ar
    41    18    21   ar
    42    18    46    1
    43    19    22   ar
    44    19    47    1
    45    20    26    1
    46    20    48    1
    47    20    49    1
    48    21    25   ar
    49    21    50    1
    50    22    25   ar
    51    22    51    1
    52    23    27   ar
    53    23    53    1
    54    24    28   ar
    55    24    54    1
    56    25    55    1
    57    26    56    1
    58    26    57    1
    59    27    29   ar
    60    27    58    1
    61    28    29   ar
    62    28    59    1
    63    29    60    1
@<TRIPOS>MOLECULE
165365093
 59 62 0 0 0
SMALL
GASTEIGER

@<TRIPOS>ATOM
      1 O          -3.9206    2.6688   -0.2209 O.2     1  UNL1       -0.2753
      2 O           7.2989    0.1691   -1.1058 O.3     1  UNL1       -0.4526
      3 O           7.6539   -1.1866    0.8547 O.3     1  UNL1       -0.4526
      4 N           0.4153    1.4313    0.0522 N.3     1  UNL1       -0.2992
      5 N          -3.6676    0.3145   -0.0864 N.am    1  UNL1       -0.2683
      6 C          -2.2312    0.1939   -0.0748 C.3     1  UNL1        0.0334
      7 C          -1.6146    0.9207   -1.2697 C.3     1  UNL1       -0.0210
      8 C          -1.6447    0.7300    1.2316 C.3     1  UNL1       -0.0210
      9 C          -0.0854    0.8755   -1.2124 C.3     1  UNL1        0.0009
     10 C          -0.1146    0.6899    1.2050 C.3     1  UNL1        0.0009
     11 C           1.8779    1.4271    0.0696 C.3     1  UNL1        0.0116
     12 C           2.3769    0.1121   -0.5549 C.3     1  UNL1       -0.0121
     13 C           2.3770    2.6601   -0.6839 C.3     1  UNL1       -0.0492
     14 C          -4.4470   -0.9178   -0.1926 C.ar    1  UNL1        0.0366
     15 C          -4.3481    1.5565    0.0981 C.2     1  UNL1        0.2198
     16 C           3.7830   -0.2560   -0.1462 C.ar    1  UNL1       -0.0422
     17 C          -5.7425    1.4409    0.7070 C.3     1  UNL1        0.0217
     18 C           4.8658    0.1912   -0.9070 C.ar    1  UNL1       -0.0129
     19 C          -5.3837   -1.0650   -1.2156 C.ar    1  UNL1       -0.0403
     20 C          -4.2543   -1.9462    0.7298 C.ar    1  UNL1       -0.0403
     21 C           3.9901   -1.0470    0.9976 C.ar    1  UNL1       -0.0548
     22 C           6.1316   -0.1711   -0.4944 C.ar    1  UNL1        0.1665
     23 C          -6.1308    2.6620    1.5270 C.3     1  UNL1       -0.0570
     24 C           5.2824   -1.3998    1.3937 C.ar    1  UNL1       -0.0159
     25 C           6.3343   -0.9453    0.6251 C.ar    1  UNL1        0.1662
     26 C          -6.1277   -2.2406   -1.3163 C.ar    1  UNL1       -0.0600
     27 C          -4.9983   -3.1218    0.6291 C.ar    1  UNL1       -0.0600
     28 C          -5.9350   -3.2690   -0.3939 C.ar    1  UNL1       -0.0616
     29 C           8.2591   -0.4776   -0.2457 C.3     1  UNL1        0.2332
     30 H          -1.9542   -0.8654   -0.1637 H       1  UNL1        0.0505
     31 H          -1.9210    1.9713   -1.3096 H       1  UNL1        0.0296
     32 H          -1.9625    0.4646   -2.2052 H       1  UNL1        0.0296
     33 H          -2.0116    0.1415    2.0812 H       1  UNL1        0.0296
     34 H          -1.9662    1.7638    1.4118 H       1  UNL1        0.0296
     35 H           0.2875    1.4486   -2.0689 H       1  UNL1        0.0427
     36 H           0.1699   -0.1765   -1.3781 H       1  UNL1        0.0427
     37 H           0.2460    1.1445    2.1360 H       1  UNL1        0.0427
     38 H           0.2132   -0.3565    1.2104 H       1  UNL1        0.0427
     39 H           2.2394    1.5249    1.1021 H       1  UNL1        0.0463
     40 H           1.7706   -0.7523   -0.2557 H       1  UNL1        0.0328
     41 H           2.3474    0.1448   -1.6530 H       1  UNL1        0.0328
     42 H           2.1733    2.6122   -1.7584 H       1  UNL1        0.0245
     43 H           3.4591    2.7741   -0.5609 H       1  UNL1        0.0245
     44 H           1.9140    3.5731   -0.2917 H       1  UNL1        0.0245
     45 H          -6.4659    1.3086   -0.1041 H       1  UNL1        0.0356
     46 H          -5.8000    0.5749    1.3734 H       1  UNL1        0.0356
     47 H           4.7241    0.8001   -1.7934 H       1  UNL1        0.0658
     48 H          -5.5374   -0.2758   -1.9471 H       1  UNL1        0.0636
     49 H          -3.5363   -1.8456    1.5391 H       1  UNL1        0.0636
     50 H           3.1445   -1.3899    1.5891 H       1  UNL1        0.0621
     51 H           5.4465   -2.0088    2.2754 H       1  UNL1        0.0655
     52 H          -6.1689    3.5605    0.9024 H       1  UNL1        0.0234
     53 H          -7.1172    2.5205    1.9793 H       1  UNL1        0.0234
     54 H          -5.4056    2.8410    2.3275 H       1  UNL1        0.0234
     55 H          -6.8555   -2.3560   -2.1141 H       1  UNL1        0.0618
     56 H          -4.8499   -3.9218    1.3485 H       1  UNL1        0.0618
     57 H          -6.5144   -4.1843   -0.4722 H       1  UNL1        0.0618
     58 H           8.9373    0.2831    0.1576 H       1  UNL1        0.1166
     59 H           8.8423   -1.1882   -0.8427 H       1  UNL1        0.1166
@<TRIPOS>BOND
     1     1    15    2
     2     2    22    1
     3     2    29    1
     4     3    25    1
     5     3    29    1
     6     4     9    1
     7     4    10    1
     8     4    11    1
     9     5     6    1
    10     5    14    1
    11     5    15   am
    12     6     7    1
    13     6     8    1
    14     6    30    1
    15     7     9    1
    16     7    31    1
    17     7    32    1
    18     8    10    1
    19     8    33    1
    20     8    34    1
    21     9    35    1
    22     9    36    1
    23    10    37    1
    24    10    38    1
    25    11    12    1
    26    11    13    1
    27    11    39    1
    28    12    16    1
    29    12    40    1
    30    12    41    1
    31    13    42    1
    32    13    43    1
    33    13    44    1
    34    14    19   ar
    35    14    20   ar
    36    15    17    1
    37    16    18   ar
    38    16    21   ar
    39    17    23    1
    40    17    45    1
    41    17    46    1
    42    18    22   ar
    43    18    47    1
    44    19    26   ar
    45    19    48    1
    46    20    27   ar
    47    20    49    1
    48    21    24   ar
    49    21    50    1
    50    22    25   ar
    51    23    52    1
    52    23    53    1
    53    23    54    1
    54    24    25   ar
    55    24    51    1
    56    26    28   ar
    57    26    55    1
    58    27    28   ar
    59    27    56    1
    60    28    57    1
    61    29    58    1
    62    29    59    1
@<TRIPOS>MOLECULE
165365263
 57 59 0 0 0
SMALL
GASTEIGER

@<TRIPOS>ATOM
      1 O           5.1468    2.4252    0.5541 O.3     1  UNL1       -0.3859
      2 O          -0.7278   -2.1261   -0.0989 O.2     1  UNL1       -0.2752
      3 N           1.6911    1.2876   -0.2059 N.3     1  UNL1       -0.2994
      4 N          -2.2139   -0.2924    0.0015 N.am    1  UNL1       -0.2655
      5 C          -1.2204    0.7661   -0.1013 C.3     1  UNL1        0.0417
      6 C          -0.3635    0.5254   -1.3585 C.3     1  UNL1       -0.0184
      7 C          -0.3094    0.7286    1.1415 C.3     1  UNL1       -0.0184
      8 C           0.8729    1.4290   -1.4167 C.3     1  UNL1        0.0009
      9 C           0.9254    1.6256    1.0004 C.3     1  UNL1        0.0009
     10 C          -1.9654    2.1085   -0.1912 C.3     1  UNL1       -0.0431
     11 C           2.8927    2.1160   -0.2993 C.3     1  UNL1        0.0291
     12 C          -3.6140    0.1104    0.0097 C.ar    1  UNL1        0.0369
     13 C           3.9864    1.5993    0.6437 C.3     1  UNL1        0.0928
     14 C          -1.8713   -1.6727   -0.0067 C.2     1  UNL1        0.2200
     15 C          -3.0435   -2.6357    0.1573 C.3     1  UNL1        0.0217
     16 C           4.3874    0.1810    0.3022 C.ar    1  UNL1       -0.0179
     17 C          -4.2791    0.2974    1.2214 C.ar    1  UNL1       -0.0403
     18 C          -4.2896    0.3083   -1.1945 C.ar    1  UNL1       -0.0403
     19 C          -2.6136   -4.0949    0.1472 C.3     1  UNL1       -0.0570
     20 C          -5.6198    0.6823    1.2290 C.ar    1  UNL1       -0.0600
     21 C          -5.6302    0.6932   -1.1869 C.ar    1  UNL1       -0.0600
     22 C           3.7253   -0.8927    0.8974 C.ar    1  UNL1       -0.0561
     23 C           5.4191   -0.0531   -0.6070 C.ar    1  UNL1       -0.0561
     24 C          -6.2953    0.8802    0.0248 C.ar    1  UNL1       -0.0616
     25 C           4.0948   -2.2007    0.5834 C.ar    1  UNL1       -0.0614
     26 C           5.7885   -1.3610   -0.9209 C.ar    1  UNL1       -0.0614
     27 C           5.1265   -2.4347   -0.3258 C.ar    1  UNL1       -0.0617
     28 H          -0.9686    0.6874   -2.2604 H       1  UNL1        0.0298
     29 H           0.0028   -0.5006   -1.4394 H       1  UNL1        0.0298
     30 H          -0.8756    1.0290    2.0329 H       1  UNL1        0.0298
     31 H           0.0419   -0.2896    1.3470 H       1  UNL1        0.0298
     32 H           1.4592    1.1336   -2.2960 H       1  UNL1        0.0427
     33 H           0.5748    2.4735   -1.5711 H       1  UNL1        0.0427
     34 H           0.6258    2.6810    0.9955 H       1  UNL1        0.0427
     35 H           1.5302    1.4784    1.9015 H       1  UNL1        0.0427
     36 H          -2.5632    2.2186   -1.1015 H       1  UNL1        0.0250
     37 H          -1.2500    2.9380   -0.2415 H       1  UNL1        0.0250
     38 H          -2.5767    2.3316    0.6900 H       1  UNL1        0.0250
     39 H           2.6793    3.1749   -0.1006 H       1  UNL1        0.0455
     40 H           3.2974    2.0932   -1.3214 H       1  UNL1        0.0455
     41 H           3.6745    1.6444    1.6926 H       1  UNL1        0.0656
     42 H          -3.7542   -2.4844   -0.6612 H       1  UNL1        0.0356
     43 H          -3.5441   -2.4318    1.1091 H       1  UNL1        0.0356
     44 H          -3.7613    0.1465    2.1650 H       1  UNL1        0.0636
     45 H          -3.7827    0.1605   -2.1446 H       1  UNL1        0.0636
     46 H           4.8776    3.3325    0.7777 H       1  UNL1        0.2103
     47 H          -1.9158   -4.3054    0.9644 H       1  UNL1        0.0234
     48 H          -3.4835   -4.7485    0.2646 H       1  UNL1        0.0234
     49 H          -2.1174   -4.3523   -0.7944 H       1  UNL1        0.0234
     50 H          -6.1375    0.8280    2.1725 H       1  UNL1        0.0618
     51 H          -6.1565    0.8462   -2.1245 H       1  UNL1        0.0618
     52 H           2.9257   -0.7284    1.6144 H       1  UNL1        0.0621
     53 H           5.9422    0.7641   -1.0958 H       1  UNL1        0.0621
     54 H          -7.3393    1.1797    0.0307 H       1  UNL1        0.0618
     55 H           3.5802   -3.0367    1.0479 H       1  UNL1        0.0618
     56 H           6.5895   -1.5437   -1.6313 H       1  UNL1        0.0618
     57 H           5.4139   -3.4530   -0.5706 H       1  UNL1        0.0618
@<TRIPOS>BOND
     1     1    13    1
     2     1    46    1
     3     2    14    2
     4     3     8    1
     5     3     9    1
     6     3    11    1
     7     4     5    1
     8     4    12    1
     9     4    14   am
    10     5     6    1
    11     5     7    1
    12     5    10    1
    13     6     8    1
    14     6    28    1
    15     6    29    1
    16     7     9    1
    17     7    30    1
    18     7    31    1
    19     8    32    1
    20     8    33    1
    21     9    34    1
    22     9    35    1
    23    10    36    1
    24    10    37    1
    25    10    38    1
    26    11    13    1
    27    11    39    1
    28    11    40    1
    29    12    17   ar
    30    12    18   ar
    31    13    16    1
    32    13    41    1
    33    14    15    1
    34    15    19    1
    35    15    42    1
    36    15    43    1
    37    16    22   ar
    38    16    23   ar
    39    17    20   ar
    40    17    44    1
    41    18    21   ar
    42    18    45    1
    43    19    47    1
    44    19    48    1
    45    19    49    1
    46    20    24   ar
    47    20    50    1
    48    21    24   ar
    49    21    51    1
    50    22    25   ar
    51    22    52    1
    52    23    26   ar
    53    23    53    1
    54    24    54    1
    55    25    27   ar
    56    25    55    1
    57    26    27   ar
    58    26    56    1
    59    27    57    1
@<TRIPOS>MOLECULE
527021
 53 55 0 0 0
SMALL
GASTEIGER

@<TRIPOS>ATOM
      1 F          -3.0795   -4.4716    0.1565 F       1  UNL1       -0.2055
      2 O          -2.9010    3.0677   -0.3296 O.2     1  UNL1       -0.2750
      3 N           2.1573    0.6799    1.0220 N.3     1  UNL1       -0.2980
      4 N          -1.9538    0.9358    0.0408 N.am    1  UNL1       -0.2681
      5 C          -0.6035    1.3532    0.3256 C.3     1  UNL1        0.0334
      6 C           0.3781    0.7748   -0.6940 C.3     1  UNL1       -0.0210
      7 C          -0.1950    0.9462    1.7411 C.3     1  UNL1       -0.0210
      8 C           1.8226    1.1291   -0.3365 C.3     1  UNL1        0.0009
      9 C           1.2687    1.2936    2.0185 C.3     1  UNL1        0.0009
     10 C           3.5555    0.9798    1.3300 C.3     1  UNL1        0.0240
     11 C          -3.0141    1.8386   -0.2694 C.2     1  UNL1        0.2226
     12 C          -2.2538   -0.4947    0.0716 C.ar    1  UNL1        0.0367
     13 C          -4.3926    1.2124   -0.5302 C.3     1  UNL1        0.0305
     14 C           4.4991    0.2969    0.3758 C.ar    1  UNL1       -0.0334
     15 C          -2.1099   -1.1941   -1.0891 C.ar    1  UNL1       -0.0376
     16 C          -2.6542   -1.0303    1.2590 C.ar    1  UNL1       -0.0376
     17 C          -4.5641    0.9431   -2.0252 C.3     1  UNL1       -0.0543
     18 C          -5.5163    2.1334   -0.0442 C.3     1  UNL1       -0.0543
     19 C           4.9725   -0.9731    0.6745 C.ar    1  UNL1       -0.0573
     20 C           4.8825    0.9472   -0.7888 C.ar    1  UNL1       -0.0573
     21 C          -2.3942   -2.5594   -1.0599 C.ar    1  UNL1       -0.0247
     22 C          -2.9382   -2.3956    1.2883 C.ar    1  UNL1       -0.0247
     23 C          -2.8084   -3.1602    0.1288 C.ar    1  UNL1        0.1235
     24 C           5.8468   -1.6056   -0.2094 C.ar    1  UNL1       -0.0615
     25 C           5.7566    0.3146   -1.6729 C.ar    1  UNL1       -0.0615
     26 C           6.2388   -0.9617   -1.3832 C.ar    1  UNL1       -0.0617
     27 H          -0.5599    2.4477    0.2586 H       1  UNL1        0.0505
     28 H           0.1426    1.1461   -1.6989 H       1  UNL1        0.0296
     29 H           0.3207   -0.3186   -0.7365 H       1  UNL1        0.0296
     30 H          -0.2979   -0.1328    1.8998 H       1  UNL1        0.0296
     31 H          -0.8386    1.4403    2.4791 H       1  UNL1        0.0296
     32 H           2.4208    0.6186   -1.0954 H       1  UNL1        0.0427
     33 H           1.9760    2.2104   -0.4485 H       1  UNL1        0.0427
     34 H           1.3908    2.3847    2.0322 H       1  UNL1        0.0427
     35 H           1.5228    0.9257    3.0201 H       1  UNL1        0.0427
     36 H           3.7932    0.6463    2.3493 H       1  UNL1        0.0476
     37 H           3.7440    2.0627    1.3222 H       1  UNL1        0.0476
     38 H          -4.5317    0.2801    0.0170 H       1  UNL1        0.0389
     39 H          -1.7806   -0.7353   -2.0151 H       1  UNL1        0.0637
     40 H          -2.7698   -0.4367    2.1596 H       1  UNL1        0.0637
     41 H          -4.5888    1.8832   -2.5887 H       1  UNL1        0.0237
     42 H          -5.5051    0.4159   -2.2159 H       1  UNL1        0.0237
     43 H          -3.7551    0.3485   -2.4493 H       1  UNL1        0.0237
     44 H          -5.5219    3.0866   -0.5843 H       1  UNL1        0.0237
     45 H          -5.3964    2.3571    1.0215 H       1  UNL1        0.0237
     46 H          -6.4944    1.6610   -0.1839 H       1  UNL1        0.0237
     47 H           4.6720   -1.4846    1.5846 H       1  UNL1        0.0621
     48 H           4.5289    1.9479   -1.0211 H       1  UNL1        0.0621
     49 H          -2.2911   -3.1550   -1.9621 H       1  UNL1        0.0647
     50 H          -3.2633   -2.8631    2.2131 H       1  UNL1        0.0647
     51 H           6.2220   -2.5996    0.0159 H       1  UNL1        0.0618
     52 H           6.0647    0.8174   -2.5850 H       1  UNL1        0.0618
     53 H           6.9201   -1.4539   -2.0710 H       1  UNL1        0.0618
@<TRIPOS>BOND
     1     1    23    1
     2     2    11    2
     3     3     8    1
     4     3     9    1
     5     3    10    1
     6     4     5    1
     7     4    11   am
     8     4    12    1
     9     5     6    1
    10     5     7    1
    11     5    27    1
    12     6     8    1
    13     6    28    1
    14     6    29    1
    15     7     9    1
    16     7    30    1
    17     7    31    1
    18     8    32    1
    19     8    33    1
    20     9    34    1
    21     9    35    1
    22    10    14    1
    23    10    36    1
    24    10    37    1
    25    11    13    1
    26    12    15   ar
    27    12    16   ar
    28    13    17    1
    29    13    18    1
    30    13    38    1
    31    14    19   ar
    32    14    20   ar
    33    15    21   ar
    34    15    39    1
    35    16    22   ar
    36    16    40    1
    37    17    41    1
    38    17    42    1
    39    17    43    1
    40    18    44    1
    41    18    45    1
    42    18    46    1
    43    19    24   ar
    44    19    47    1
    45    20    25   ar
    46    20    48    1
    47    21    23   ar
    48    21    49    1
    49    22    23   ar
    50    22    50    1
    51    24    26   ar
    52    24    51    1
    53    25    26   ar
    54    25    52    1
    55    26    53    1
@<TRIPOS>MOLECULE
13653630
 54 56 0 0 0
SMALL
GASTEIGER

@<TRIPOS>ATOM
      1 CL         -4.1349   -4.7799   -0.2193 Cl      1  UNL1       -0.0835
      2 O          -3.2228    3.0984    0.0008 O.2     1  UNL1       -0.2727
      3 O          -5.7232    2.5148   -0.1585 O.3     1  UNL1       -0.3738
      4 N           1.7383    0.2070    0.4840 N.3     1  UNL1       -0.3019
      5 N          -2.4219    0.8656    0.0499 N.am    1  UNL1       -0.2664
      6 C          -1.0169    1.1505    0.2024 C.3     1  UNL1        0.0335
      7 C          -0.2139    0.6095   -0.9810 C.3     1  UNL1       -0.0210
      8 C          -0.4827    0.5707    1.5118 C.3     1  UNL1       -0.0210
      9 C           1.2875    0.8174   -0.7744 C.3     1  UNL1        0.0006
     10 C           1.0277    0.7786    1.6362 C.3     1  UNL1        0.0006
     11 C           3.1834    0.3695    0.6424 C.3     1  UNL1        0.0029
     12 C           3.9407   -0.3364   -0.4831 C.3     1  UNL1       -0.0149
     13 C          -2.8449   -0.5305   -0.0166 C.ar    1  UNL1        0.0367
     14 C          -3.4160    1.8797   -0.0387 C.2     1  UNL1        0.2458
     15 C           5.4330   -0.1955   -0.3193 C.ar    1  UNL1       -0.0462
     16 C          -4.8535    1.4029   -0.1400 C.3     1  UNL1        0.1238
     17 C          -2.9017   -1.1159   -1.2465 C.ar    1  UNL1       -0.0389
     18 C          -3.1550   -1.1537    1.1559 C.ar    1  UNL1       -0.0389
     19 C           6.0827    0.8842   -0.8983 C.ar    1  UNL1       -0.0585
     20 C           6.1313   -1.1476    0.4081 C.ar    1  UNL1       -0.0585
     21 C          -3.3064   -2.4493   -1.3101 C.ar    1  UNL1       -0.0416
     22 C          -3.5596   -2.4871    1.0924 C.ar    1  UNL1       -0.0416
     23 C          -3.6353   -3.1350   -0.1407 C.ar    1  UNL1        0.0411
     24 C           7.4631    1.0149   -0.7467 C.ar    1  UNL1       -0.0615
     25 C           7.5118   -1.0168    0.5597 C.ar    1  UNL1       -0.0615
     26 C           8.1776    0.0644   -0.0176 C.ar    1  UNL1       -0.0617
     27 C          -7.0887    2.1196   -0.2529 C.3     1  UNL1        0.0371
     28 H          -0.8868    2.2399    0.2332 H       1  UNL1        0.0505
     29 H          -0.5319    1.0997   -1.9092 H       1  UNL1        0.0296
     30 H          -0.3707   -0.4662   -1.1188 H       1  UNL1        0.0296
     31 H          -0.6600   -0.5082    1.5803 H       1  UNL1        0.0296
     32 H          -0.9910    1.0326    2.3668 H       1  UNL1        0.0296
     33 H           1.7591    0.3586   -1.6469 H       1  UNL1        0.0427
     34 H           1.5195    1.8903   -0.7978 H       1  UNL1        0.0427
     35 H           1.2441    1.8504    1.7367 H       1  UNL1        0.0427
     36 H           1.3635    0.2915    2.5599 H       1  UNL1        0.0427
     37 H           3.4583    1.4326    0.6782 H       1  UNL1        0.0430
     38 H           3.4956   -0.0683    1.5998 H       1  UNL1        0.0430
     39 H           3.6732   -1.4011   -0.5146 H       1  UNL1        0.0326
     40 H           3.7002    0.0634   -1.4732 H       1  UNL1        0.0326
     41 H          -5.0961    0.7841    0.7291 H       1  UNL1        0.0657
     42 H          -4.9814    0.8346   -1.0667 H       1  UNL1        0.0657
     43 H          -2.6595   -0.5823   -2.1595 H       1  UNL1        0.0637
     44 H          -3.1100   -0.6497    2.1157 H       1  UNL1        0.0637
     45 H           5.5353    1.6316   -1.4656 H       1  UNL1        0.0620
     46 H           5.6215   -1.9920    0.8631 H       1  UNL1        0.0620
     47 H          -3.3636   -2.9403   -2.2782 H       1  UNL1        0.0633
     48 H          -3.8157   -3.0078    2.0116 H       1  UNL1        0.0633
     49 H           7.9816    1.8572   -1.1956 H       1  UNL1        0.0618
     50 H           8.0683   -1.7565    1.1280 H       1  UNL1        0.0618
     51 H           9.2524    0.1663    0.1009 H       1  UNL1        0.0618
     52 H          -7.3713    1.5112    0.6117 H       1  UNL1        0.0524
     53 H          -7.7069    3.0212   -0.2638 H       1  UNL1        0.0524
     54 H          -7.2626    1.5639   -1.1793 H       1  UNL1        0.0524
@<TRIPOS>BOND
     1     1    23    1
     2     2    14    2
     3     3    16    1
     4     3    27    1
     5     4     9    1
     6     4    10    1
     7     4    11    1
     8     5     6    1
     9     5    13    1
    10     5    14   am
    11     6     7    1
    12     6     8    1
    13     6    28    1
    14     7     9    1
    15     7    29    1
    16     7    30    1
    17     8    10    1
    18     8    31    1
    19     8    32    1
    20     9    33    1
    21     9    34    1
    22    10    35    1
    23    10    36    1
    24    11    12    1
    25    11    37    1
    26    11    38    1
    27    12    15    1
    28    12    39    1
    29    12    40    1
    30    13    17   ar
    31    13    18   ar
    32    14    16    1
    33    15    19   ar
    34    15    20   ar
    35    16    41    1
    36    16    42    1
    37    17    21   ar
    38    17    43    1
    39    18    22   ar
    40    18    44    1
    41    19    24   ar
    42    19    45    1
    43    20    25   ar
    44    20    46    1
    45    21    23   ar
    46    21    47    1
    47    22    23   ar
    48    22    48    1
    49    24    26   ar
    50    24    49    1
    51    25    26   ar
    52    25    50    1
    53    26    51    1
    54    27    52    1
    55    27    53    1
    56    27    54    1
@<TRIPOS>MOLECULE
137699902
 54 57 0 0 0
SMALL
GASTEIGER

@<TRIPOS>ATOM
      1 O          -1.8724    2.1028    1.0481 O.2     1  UNL1       -0.2663
      2 O          -4.4102    2.6859    0.3356 O.2     1  UNL1       -0.4583
      3 N           2.1070    0.0401    0.5280 N.3     1  UNL1       -0.3019
      4 N          -2.1180   -0.1548    0.3265 N.am    1  UNL1       -0.2618
      5 C          -0.7441   -0.5912    0.3457 C.3     1  UNL1        0.0338
      6 C          -0.0706   -0.2309    1.6701 C.3     1  UNL1       -0.0210
      7 C           0.0348    0.0108   -0.8235 C.3     1  UNL1       -0.0210
      8 C           1.4143   -0.5985    1.6557 C.3     1  UNL1        0.0006
      9 C           1.5164   -0.3636   -0.7555 C.3     1  UNL1        0.0006
     10 C           3.5342   -0.2793    0.5572 C.3     1  UNL1        0.0029
     11 C           4.3325    0.7000   -0.3038 C.3     1  UNL1       -0.0149
     12 C          -3.1765   -1.1543    0.1816 C.ar    1  UNL1        0.0370
     13 C          -2.4779    1.2184    0.4440 C.2     1  UNL1        0.2864
     14 C           5.8035    0.3685   -0.3000 C.ar    1  UNL1       -0.0462
     15 C          -2.9340   -2.3287   -0.5308 C.ar    1  UNL1       -0.0403
     16 C          -4.4287   -0.9320    0.7543 C.ar    1  UNL1       -0.0403
     17 C          -3.7243    1.6508   -0.2166 C.ar    1  UNL1        0.1896
     18 C           6.6429    0.9302    0.6619 C.ar    1  UNL1       -0.0585
     19 C           6.3249   -0.5001   -1.2589 C.ar    1  UNL1       -0.0585
     20 C          -3.9437   -3.2810   -0.6703 C.ar    1  UNL1       -0.0600
     21 C          -5.4385   -1.8842    0.6150 C.ar    1  UNL1       -0.0600
     22 C          -4.3666    1.1916   -1.3430 C.ar    1  UNL1       -0.0113
     23 C          -5.1960   -3.0586   -0.0973 C.ar    1  UNL1       -0.0616
     24 C           8.0037    0.6234    0.6652 C.ar    1  UNL1       -0.0615
     25 C           7.6855   -0.8068   -1.2558 C.ar    1  UNL1       -0.0615
     26 C          -5.5211    1.9966   -1.4927 C.ar    1  UNL1       -0.0231
     27 C           8.5250   -0.2451   -0.2938 C.ar    1  UNL1       -0.0617
     28 C          -5.5021    2.8900   -0.4469 C.ar    1  UNL1        0.0928
     29 H          -0.6753   -1.6813    0.2773 H       1  UNL1        0.0505
     30 H          -0.5695   -0.7517    2.4969 H       1  UNL1        0.0296
     31 H          -0.1406    0.8376    1.8938 H       1  UNL1        0.0296
     32 H          -0.0535    1.1050   -0.8302 H       1  UNL1        0.0296
     33 H          -0.3878   -0.3387   -1.7737 H       1  UNL1        0.0296
     34 H           1.5249   -1.6902    1.6143 H       1  UNL1        0.0427
     35 H           1.8538   -0.2633    2.6033 H       1  UNL1        0.0427
     36 H           2.0064    0.1363   -1.5964 H       1  UNL1        0.0427
     37 H           1.6266   -1.4448   -0.9139 H       1  UNL1        0.0427
     38 H           3.9109   -0.1948    1.5859 H       1  UNL1        0.0430
     39 H           3.7171   -1.3180    0.2501 H       1  UNL1        0.0430
     40 H           4.1891    1.7265    0.0595 H       1  UNL1        0.0326
     41 H           3.9944    0.7064   -1.3457 H       1  UNL1        0.0326
     42 H          -1.9925   -2.5238   -1.0345 H       1  UNL1        0.0636
     43 H          -4.6386   -0.0756    1.3888 H       1  UNL1        0.0636
     44 H           6.2482    1.6068    1.4152 H       1  UNL1        0.0620
     45 H           5.6807   -0.9458   -2.0122 H       1  UNL1        0.0620
     46 H          -3.7588   -4.1910   -1.2335 H       1  UNL1        0.0618
     47 H          -6.4078   -1.7200    1.0766 H       1  UNL1        0.0618
     48 H          -4.0452    0.3992   -2.0041 H       1  UNL1        0.0657
     49 H          -5.9816   -3.8008   -0.2043 H       1  UNL1        0.0618
     50 H           8.6572    1.0604    1.4145 H       1  UNL1        0.0618
     51 H           8.0914   -1.4835   -2.0020 H       1  UNL1        0.0618
     52 H          -6.2694    1.9377   -2.2697 H       1  UNL1        0.0649
     53 H           9.5844   -0.4841   -0.2913 H       1  UNL1        0.0618
     54 H          -6.1561    3.6918   -0.1366 H       1  UNL1        0.1029
@<TRIPOS>BOND
     1     1    13    2
     2     2    17   ar
     3     2    28   ar
     4     3     8    1
     5     3     9    1
     6     3    10    1
     7     4     5    1
     8     4    12    1
     9     4    13   am
    10     5     6    1
    11     5     7    1
    12     5    29    1
    13     6     8    1
    14     6    30    1
    15     6    31    1
    16     7     9    1
    17     7    32    1
    18     7    33    1
    19     8    34    1
    20     8    35    1
    21     9    36    1
    22     9    37    1
    23    10    11    1
    24    10    38    1
    25    10    39    1
    26    11    14    1
    27    11    40    1
    28    11    41    1
    29    12    15   ar
    30    12    16   ar
    31    13    17    1
    32    14    18   ar
    33    14    19   ar
    34    15    20   ar
    35    15    42    1
    36    16    21   ar
    37    16    43    1
    38    17    22   ar
    39    18    24   ar
    40    18    44    1
    41    19    25   ar
    42    19    45    1
    43    20    23   ar
    44    20    46    1
    45    21    23   ar
    46    21    47    1
    47    22    26   ar
    48    22    48    1
    49    23    49    1
    50    24    27   ar
    51    24    50    1
    52    25    27   ar
    53    25    51    1
    54    26    28   ar
    55    26    52    1
    56    27    53    1
    57    28    54    1
@<TRIPOS>MOLECULE
137699965
 58 61 0 0 0
SMALL
GASTEIGER

@<TRIPOS>ATOM
      1 O          -3.8889    1.4896    1.1514 O.3     1  UNL1       -0.3673
      2 O          -1.9511    1.8507   -1.4782 O.2     1  UNL1       -0.2724
      3 N           1.9400   -0.1994   -0.4940 N.3     1  UNL1       -0.3019
      4 N          -2.2935   -0.2513   -0.4280 N.am    1  UNL1       -0.2662
      5 C          -0.9337   -0.7091   -0.2872 C.3     1  UNL1        0.0335
      6 C          -0.2056   -0.6745   -1.6307 C.3     1  UNL1       -0.0210
      7 C          -0.1760    0.1256    0.7456 C.3     1  UNL1       -0.0210
      8 C           1.2662   -1.0612   -1.4750 C.3     1  UNL1        0.0006
      9 C           1.2946   -0.2886    0.8231 C.3     1  UNL1        0.0006
     10 C           3.3569   -0.5491   -0.3940 C.3     1  UNL1        0.0029
     11 C          -3.9426    1.5800   -0.2751 C.3     1  UNL1        0.1349
     12 C          -2.6227    1.0871   -0.7800 C.2     1  UNL1        0.2489
     13 C          -4.1941    3.0332   -0.6295 C.3     1  UNL1       -0.0159
     14 C          -3.3592   -1.1949   -0.1004 C.ar    1  UNL1        0.0366
     15 C          -3.6391    3.7634    0.5700 C.3     1  UNL1       -0.0266
     16 C           4.1828    0.6439    0.0881 C.3     1  UNL1       -0.0149
     17 C          -3.9714    2.8127    1.6977 C.3     1  UNL1        0.0487
     18 C          -3.3942   -1.7987    1.1563 C.ar    1  UNL1       -0.0403
     19 C          -4.3411   -1.4933   -1.0452 C.ar    1  UNL1       -0.0403
     20 C           5.6493    0.3033    0.1746 C.ar    1  UNL1       -0.0462
     21 C          -4.4110   -2.7010    1.4685 C.ar    1  UNL1       -0.0600
     22 C          -5.3581   -2.3956   -0.7331 C.ar    1  UNL1       -0.0600
     23 C           6.1772   -0.2123    1.3583 C.ar    1  UNL1       -0.0585
     24 C           6.4778    0.5038   -0.9294 C.ar    1  UNL1       -0.0585
     25 C          -5.3930   -2.9995    0.5238 C.ar    1  UNL1       -0.0616
     26 C           7.5338   -0.5271    1.4380 C.ar    1  UNL1       -0.0615
     27 C           7.8342    0.1888   -0.8498 C.ar    1  UNL1       -0.0615
     28 C           8.3623   -0.3265    0.3340 C.ar    1  UNL1       -0.0617
     29 H          -0.9337   -1.7539    0.0523 H       1  UNL1        0.0505
     30 H          -0.2469    0.3180   -2.0913 H       1  UNL1        0.0296
     31 H          -0.6916   -1.3601   -2.3360 H       1  UNL1        0.0296
     32 H          -0.6397    0.0147    1.7333 H       1  UNL1        0.0296
     33 H          -0.2271    1.1944    0.5012 H       1  UNL1        0.0296
     34 H           1.7456   -0.9583   -2.4564 H       1  UNL1        0.0427
     35 H           1.3425   -2.1173   -1.1840 H       1  UNL1        0.0427
     36 H           1.7858    0.3753    1.5427 H       1  UNL1        0.0427
     37 H           1.3638   -1.3082    1.2252 H       1  UNL1        0.0427
     38 H           3.5129   -1.4293    0.2444 H       1  UNL1        0.0430
     39 H           3.7421   -0.8276   -1.3850 H       1  UNL1        0.0430
     40 H          -4.7690    0.9801   -0.6583 H       1  UNL1        0.0693
     41 H          -5.2768    3.2093   -0.6757 H       1  UNL1        0.0296
     42 H          -3.7754    3.3747   -1.5799 H       1  UNL1        0.0296
     43 H          -2.5520    3.8669    0.4746 H       1  UNL1        0.0288
     44 H          -4.0664    4.7593    0.7131 H       1  UNL1        0.0288
     45 H           3.8477    0.9922    1.0724 H       1  UNL1        0.0326
     46 H           4.0477    1.4973   -0.5898 H       1  UNL1        0.0326
     47 H          -3.2858    2.9057    2.5443 H       1  UNL1        0.0560
     48 H          -4.9951    2.9644    2.0564 H       1  UNL1        0.0560
     49 H          -2.6433   -1.5712    1.9080 H       1  UNL1        0.0636
     50 H          -4.3192   -1.0405   -2.0332 H       1  UNL1        0.0636
     51 H          -4.4395   -3.1696    2.4479 H       1  UNL1        0.0618
     52 H          -6.1211   -2.6300   -1.4696 H       1  UNL1        0.0618
     53 H           5.5412   -0.3749    2.2245 H       1  UNL1        0.0620
     54 H           6.0779    0.9030   -1.8577 H       1  UNL1        0.0620
     55 H          -6.1847   -3.7021    0.7669 H       1  UNL1        0.0618
     56 H           7.9449   -0.9290    2.3595 H       1  UNL1        0.0618
     57 H           8.4794    0.3444   -1.7095 H       1  UNL1        0.0618
     58 H           9.4184   -0.5719    0.3959 H       1  UNL1        0.0618
@<TRIPOS>BOND
     1     1    11    1
     2     1    17    1
     3     2    12    2
     4     3     8    1
     5     3     9    1
     6     3    10    1
     7     4     5    1
     8     4    12   am
     9     4    14    1
    10     5     6    1
    11     5     7    1
    12     5    29    1
    13     6     8    1
    14     6    30    1
    15     6    31    1
    16     7     9    1
    17     7    32    1
    18     7    33    1
    19     8    34    1
    20     8    35    1
    21     9    36    1
    22     9    37    1
    23    10    16    1
    24    10    38    1
    25    10    39    1
    26    11    12    1
    27    11    13    1
    28    11    40    1
    29    13    15    1
    30    13    41    1
    31    13    42    1
    32    14    18   ar
    33    14    19   ar
    34    15    17    1
    35    15    43    1
    36    15    44    1
    37    16    20    1
    38    16    45    1
    39    16    46    1
    40    17    47    1
    41    17    48    1
    42    18    21   ar
    43    18    49    1
    44    19    22   ar
    45    19    50    1
    46    20    23   ar
    47    20    24   ar
    48    21    25   ar
    49    21    51    1
    50    22    25   ar
    51    22    52    1
    52    23    26   ar
    53    23    53    1
    54    24    27   ar
    55    24    54    1
    56    25    55    1
    57    26    28   ar
    58    26    56    1
    59    27    28   ar
    60    27    57    1
    61    28    58    1
@<TRIPOS>MOLECULE
137700467
 51 53 0 0 0
SMALL
GASTEIGER

@<TRIPOS>ATOM
      1 O          -4.1108    1.9554   -0.8365 O.3     1  UNL1       -0.4533
      2 O          -2.2985    2.6361    0.3537 O.2     1  UNL1       -0.2259
      3 N           1.4793    0.2466    0.4213 N.3     1  UNL1       -0.3019
      4 N          -2.7388    0.3203    0.0587 N.am    1  UNL1       -0.2342
      5 C          -1.4055   -0.2015    0.2270 C.3     1  UNL1        0.0366
      6 C          -0.5428    0.1036   -0.9972 C.3     1  UNL1       -0.0209
      7 C          -0.7496    0.3605    1.4885 C.3     1  UNL1       -0.0209
      8 C           0.9011   -0.3560   -0.7878 C.3     1  UNL1        0.0006
      9 C           0.7009   -0.1086    1.6160 C.3     1  UNL1        0.0006
     10 C           2.8747   -0.1628    0.5796 C.3     1  UNL1        0.0029
     11 C           3.7767    0.5701   -0.4139 C.3     1  UNL1       -0.0149
     12 C          -3.8715   -0.5993    0.0562 C.ar    1  UNL1        0.0397
     13 C          -2.9726    1.7171   -0.1054 C.2     1  UNL1        0.4072
     14 C           5.2156    0.1407   -0.2762 C.ar    1  UNL1       -0.0462
     15 C          -5.1178   -0.1720    0.5145 C.ar    1  UNL1       -0.0402
     16 C          -3.7083   -1.9058   -0.4043 C.ar    1  UNL1       -0.0402
     17 C           5.6974   -0.9331   -1.0247 C.ar    1  UNL1       -0.0585
     18 C           6.0649    0.8173    0.5993 C.ar    1  UNL1       -0.0585
     19 C          -6.2008   -1.0512    0.5124 C.ar    1  UNL1       -0.0600
     20 C          -4.7911   -2.7849   -0.4064 C.ar    1  UNL1       -0.0600
     21 C          -6.0374   -2.3576    0.0520 C.ar    1  UNL1       -0.0616
     22 C           7.0284   -1.3304   -0.8977 C.ar    1  UNL1       -0.0615
     23 C           7.3960    0.4200    0.7265 C.ar    1  UNL1       -0.0615
     24 C          -4.4672    3.3292   -1.0335 C.3     1  UNL1        0.0833
     25 C           7.8777   -0.6538   -0.0221 C.ar    1  UNL1       -0.0617
     26 H          -1.4232   -1.2864    0.3712 H       1  UNL1        0.0506
     27 H          -0.9600   -0.3935   -1.8817 H       1  UNL1        0.0296
     28 H          -0.5424    1.1787   -1.2189 H       1  UNL1        0.0296
     29 H          -1.3155    0.0469    2.3746 H       1  UNL1        0.0296
     30 H          -0.7372    1.4536    1.5043 H       1  UNL1        0.0296
     31 H           0.9299   -1.4523   -0.7305 H       1  UNL1        0.0427
     32 H           1.4571   -0.0660   -1.6845 H       1  UNL1        0.0427
     33 H           1.1343    0.3719    2.5018 H       1  UNL1        0.0427
     34 H           0.7253   -1.1926    1.7898 H       1  UNL1        0.0427
     35 H           3.2227    0.0932    1.5898 H       1  UNL1        0.0430
     36 H           2.9842   -1.2518    0.4864 H       1  UNL1        0.0430
     37 H           3.7037    1.6552   -0.2615 H       1  UNL1        0.0326
     38 H           3.4748    0.3976   -1.4527 H       1  UNL1        0.0326
     39 H          -5.2749    0.8180    0.9332 H       1  UNL1        0.0636
     40 H          -2.7706   -2.2687   -0.8134 H       1  UNL1        0.0636
     41 H           5.0450   -1.4696   -1.7086 H       1  UNL1        0.0620
     42 H           5.7007    1.6542    1.1891 H       1  UNL1        0.0620
     43 H          -7.1683   -0.7227    0.8807 H       1  UNL1        0.0618
     44 H          -4.6672   -3.7993   -0.7742 H       1  UNL1        0.0618
     45 H          -6.8804   -3.0424    0.0507 H       1  UNL1        0.0618
     46 H           7.4035   -2.1669   -1.4800 H       1  UNL1        0.0618
     47 H           8.0571    0.9465    1.4086 H       1  UNL1        0.0618
     48 H          -5.3847    3.3592   -1.6271 H       1  UNL1        0.0661
     49 H          -3.6765    3.8501   -1.5815 H       1  UNL1        0.0661
     50 H          -4.6563    3.8122   -0.0702 H       1  UNL1        0.0661
     51 H           8.9140   -0.9634    0.0770 H       1  UNL1        0.0618
@<TRIPOS>BOND
     1     1    13    1
     2     1    24    1
     3     2    13    2
     4     3     8    1
     5     3     9    1
     6     3    10    1
     7     4     5    1
     8     4    12    1
     9     4    13   am
    10     5     6    1
    11     5     7    1
    12     5    26    1
    13     6     8    1
    14     6    27    1
    15     6    28    1
    16     7     9    1
    17     7    29    1
    18     7    30    1
    19     8    31    1
    20     8    32    1
    21     9    33    1
    22     9    34    1
    23    10    11    1
    24    10    35    1
    25    10    36    1
    26    11    14    1
    27    11    37    1
    28    11    38    1
    29    12    15   ar
    30    12    16   ar
    31    14    17   ar
    32    14    18   ar
    33    15    19   ar
    34    15    39    1
    35    16    20   ar
    36    16    40    1
    37    17    22   ar
    38    17    41    1
    39    18    23   ar
    40    18    42    1
    41    19    21   ar
    42    19    43    1
    43    20    21   ar
    44    20    44    1
    45    21    45    1
    46    22    25   ar
    47    22    46    1
    48    23    25   ar
    49    23    47    1
    50    24    48    1
    51    24    49    1
    52    24    50    1
    53    25    51    1
@<TRIPOS>MOLECULE
137699876
 56 58 0 0 0
SMALL
GASTEIGER

@<TRIPOS>ATOM
      1 F          -6.7561   -3.0210    0.4723 F       1  UNL1       -0.2055
      2 O          -1.8245    2.5156   -1.1057 O.2     1  UNL1       -0.2752
      3 N           1.8561    0.0008   -0.4730 N.3     1  UNL1       -0.3019
      4 N          -2.3631    0.3361   -0.3497 N.am    1  UNL1       -0.2683
      5 C          -1.0524   -0.2614   -0.2925 C.3     1  UNL1        0.0334
      6 C          -0.3277   -0.1138   -1.6301 C.3     1  UNL1       -0.0210
      7 C          -0.2164    0.3517    0.8313 C.3     1  UNL1       -0.0210
      8 C           1.1013   -0.6538   -1.5504 C.3     1  UNL1        0.0006
      9 C           1.2085   -0.2048    0.8300 C.3     1  UNL1        0.0006
     10 C           3.2338   -0.4900   -0.4425 C.3     1  UNL1        0.0029
     11 C           4.1701    0.5446    0.1827 C.3     1  UNL1       -0.0149
     12 C          -3.5108   -0.5412   -0.1352 C.ar    1  UNL1        0.0367
     13 C          -2.5727    1.7383   -0.5074 C.2     1  UNL1        0.2200
     14 C          -3.8707    2.2689    0.0971 C.3     1  UNL1        0.0242
     15 C           5.5980    0.0599    0.2002 C.ar    1  UNL1       -0.0462
     16 C          -3.5959   -1.3064    1.0278 C.ar    1  UNL1       -0.0376
     17 C          -4.5224   -0.6134   -1.0932 C.ar    1  UNL1       -0.0376
     18 C          -3.7533    3.7195    0.5669 C.3     1  UNL1       -0.0476
     19 C           6.0778   -0.6578    1.2958 C.ar    1  UNL1       -0.0585
     20 C           6.4389    0.3295   -0.8794 C.ar    1  UNL1       -0.0585
     21 C          -4.6922   -2.1438    1.2331 C.ar    1  UNL1       -0.0247
     22 C          -5.6189   -1.4508   -0.8879 C.ar    1  UNL1       -0.0247
     23 C          -2.7017    3.8699    1.6543 C.3     1  UNL1       -0.0648
     24 C          -5.7038   -2.2160    0.2754 C.ar    1  UNL1        0.1235
     25 C           7.3987   -1.1059    1.3117 C.ar    1  UNL1       -0.0615
     26 C           7.7597   -0.1186   -0.8636 C.ar    1  UNL1       -0.0615
     27 C           8.2396   -0.8362    0.2321 C.ar    1  UNL1       -0.0617
     28 H          -1.1498   -1.3380   -0.0967 H       1  UNL1        0.0505
     29 H          -0.2764    0.9314   -1.9526 H       1  UNL1        0.0296
     30 H          -0.8782   -0.6494   -2.4136 H       1  UNL1        0.0296
     31 H          -0.6859    0.1527    1.8023 H       1  UNL1        0.0296
     32 H          -0.1660    1.4435    0.7327 H       1  UNL1        0.0296
     33 H           1.5857   -0.4645   -2.5162 H       1  UNL1        0.0427
     34 H           1.0781   -1.7420   -1.4050 H       1  UNL1        0.0427
     35 H           1.1820   -1.2713    1.0904 H       1  UNL1        0.0427
     36 H           1.7622    0.3070    1.6246 H       1  UNL1        0.0427
     37 H           3.3075   -1.4590    0.0694 H       1  UNL1        0.0430
     38 H           3.5884   -0.6667   -1.4677 H       1  UNL1        0.0430
     39 H           3.8720    0.7865    1.2098 H       1  UNL1        0.0326
     40 H           4.1146    1.4906   -0.3723 H       1  UNL1        0.0326
     41 H          -4.1780    1.6630    0.9553 H       1  UNL1        0.0358
     42 H          -4.6522    2.2067   -0.6679 H       1  UNL1        0.0358
     43 H          -2.8227   -1.2557    1.7895 H       1  UNL1        0.0637
     44 H          -4.4647   -0.0299   -2.0084 H       1  UNL1        0.0637
     45 H          -4.7240    4.0492    0.9547 H       1  UNL1        0.0267
     46 H          -3.5026    4.3757   -0.2744 H       1  UNL1        0.0267
     47 H           5.4315   -0.8759    2.1419 H       1  UNL1        0.0620
     48 H           6.0762    0.8861   -1.7395 H       1  UNL1        0.0620
     49 H          -4.7599   -2.7382    2.1395 H       1  UNL1        0.0647
     50 H          -6.4055   -1.5089   -1.6343 H       1  UNL1        0.0647
     51 H          -2.9144    3.2095    2.5012 H       1  UNL1        0.0230
     52 H          -2.6945    4.8998    2.0259 H       1  UNL1        0.0230
     53 H          -1.6955    3.6460    1.2888 H       1  UNL1        0.0230
     54 H           7.7723   -1.6652    2.1645 H       1  UNL1        0.0618
     55 H           8.4145    0.0908   -1.7044 H       1  UNL1        0.0618
     56 H           9.2680   -1.1853    0.2443 H       1  UNL1        0.0618
@<TRIPOS>BOND
     1     1    24    1
     2     2    13    2
     3     3     8    1
     4     3     9    1
     5     3    10    1
     6     4     5    1
     7     4    12    1
     8     4    13   am
     9     5     6    1
    10     5     7    1
    11     5    28    1
    12     6     8    1
    13     6    29    1
    14     6    30    1
    15     7     9    1
    16     7    31    1
    17     7    32    1
    18     8    33    1
    19     8    34    1
    20     9    35    1
    21     9    36    1
    22    10    11    1
    23    10    37    1
    24    10    38    1
    25    11    15    1
    26    11    39    1
    27    11    40    1
    28    12    16   ar
    29    12    17   ar
    30    13    14    1
    31    14    18    1
    32    14    41    1
    33    14    42    1
    34    15    19   ar
    35    15    20   ar
    36    16    21   ar
    37    16    43    1
    38    17    22   ar
    39    17    44    1
    40    18    23    1
    41    18    45    1
    42    18    46    1
    43    19    25   ar
    44    19    47    1
    45    20    26   ar
    46    20    48    1
    47    21    24   ar
    48    21    49    1
    49    22    24   ar
    50    22    50    1
    51    23    51    1
    52    23    52    1
    53    23    53    1
    54    25    27   ar
    55    25    54    1
    56    26    27   ar
    57    26    55    1
    58    27    56    1
@<TRIPOS>MOLECULE
137699978
 54 57 0 0 0
SMALL
GASTEIGER

@<TRIPOS>ATOM
      1 O          -1.6348    2.2359    0.1943 O.2     1  UNL1       -0.2695
      2 O          -5.8361    2.5469   -0.1311 O.2     1  UNL1       -0.4703
      3 N           2.1522    0.0823   -0.3441 N.3     1  UNL1       -0.3019
      4 N          -2.0698   -0.0916   -0.0726 N.am    1  UNL1       -0.2642
      5 C          -0.7055   -0.5332   -0.2214 C.3     1  UNL1        0.0337
      6 C           0.1156   -0.2147    1.0283 C.3     1  UNL1       -0.0210
      7 C          -0.0594    0.1004   -1.4532 C.3     1  UNL1       -0.0210
      8 C           1.5868   -0.5869    0.8356 C.3     1  UNL1        0.0006
      9 C           1.4178   -0.2812   -1.5639 C.3     1  UNL1        0.0006
     10 C           3.5714   -0.2429   -0.4856 C.3     1  UNL1        0.0029
     11 C           4.4287    0.6396    0.4223 C.3     1  UNL1       -0.0149
     12 C          -3.1447   -1.0827   -0.1260 C.ar    1  UNL1        0.0369
     13 C          -2.4047    1.2787    0.1246 C.2     1  UNL1        0.2541
     14 C           5.8966    0.3295    0.2699 C.ar    1  UNL1       -0.0462
     15 C          -3.1784   -2.1256    0.7994 C.ar    1  UNL1       -0.0403
     16 C          -4.1350   -0.9854   -1.1035 C.ar    1  UNL1       -0.0403
     17 C          -3.8339    1.6112    0.2783 C.ar    1  UNL1        0.0748
     18 C           6.4929   -0.6379    1.0786 C.ar    1  UNL1       -0.0585
     19 C           6.6579    1.0103   -0.6800 C.ar    1  UNL1       -0.0585
     20 C          -4.2023   -3.0714    0.7475 C.ar    1  UNL1       -0.0600
     21 C          -5.1590   -1.9310   -1.1556 C.ar    1  UNL1       -0.0600
     22 C          -4.7466    1.1585    1.2607 C.ar    1  UNL1       -0.0117
     23 C          -4.5451    2.4532   -0.5448 C.ar    1  UNL1        0.1038
     24 C          -5.1927   -2.9741   -0.2300 C.ar    1  UNL1       -0.0616
     25 C           7.8508   -0.9244    0.9375 C.ar    1  UNL1       -0.0615
     26 C           8.0156    0.7238   -0.8212 C.ar    1  UNL1       -0.0615
     27 C          -5.9504    1.7561    0.9681 C.ar    1  UNL1        0.0924
     28 C           8.6121   -0.2435   -0.0123 C.ar    1  UNL1       -0.0617
     29 H          -0.6978   -1.6221   -0.3675 H       1  UNL1        0.0505
     30 H          -0.2881   -0.7605    1.8899 H       1  UNL1        0.0296
     31 H           0.0611    0.8483    1.2891 H       1  UNL1        0.0296
     32 H          -0.1314    1.1937   -1.4322 H       1  UNL1        0.0296
     33 H          -0.5887   -0.2227   -2.3584 H       1  UNL1        0.0296
     34 H           1.6764   -1.6780    0.7473 H       1  UNL1        0.0427
     35 H           2.1228   -0.2927    1.7444 H       1  UNL1        0.0427
     36 H           1.8376    0.2503   -2.4268 H       1  UNL1        0.0427
     37 H           1.5080   -1.3565   -1.7676 H       1  UNL1        0.0427
     38 H           3.7626   -1.3094   -0.3051 H       1  UNL1        0.0430
     39 H           3.8955   -0.0526   -1.5184 H       1  UNL1        0.0430
     40 H           4.1544    0.5162    1.4767 H       1  UNL1        0.0326
     41 H           4.2559    1.6997    0.1934 H       1  UNL1        0.0326
     42 H          -2.4173   -2.2113    1.5702 H       1  UNL1        0.0636
     43 H          -4.1064   -0.2048   -1.8591 H       1  UNL1        0.0636
     44 H           5.9096   -1.1765    1.8207 H       1  UNL1        0.0620
     45 H           6.2042    1.7648   -1.3172 H       1  UNL1        0.0620
     46 H          -4.2291   -3.8829    1.4687 H       1  UNL1        0.0618
     47 H          -5.9252   -1.8602   -1.9220 H       1  UNL1        0.0618
     48 H          -4.5572    0.4905    2.0889 H       1  UNL1        0.0656
     49 H          -4.2942    3.0327   -1.4215 H       1  UNL1        0.1037
     50 H          -5.9891   -3.7114   -0.2714 H       1  UNL1        0.0618
     51 H           8.3152   -1.6780    1.5668 H       1  UNL1        0.0618
     52 H           8.6085    1.2535   -1.5611 H       1  UNL1        0.0618
     53 H          -6.9301    1.7254    1.4220 H       1  UNL1        0.1029
     54 H           9.6693   -0.4667   -0.1224 H       1  UNL1        0.0618
@<TRIPOS>BOND
     1     1    13    2
     2     2    23   ar
     3     2    27   ar
     4     3     8    1
     5     3     9    1
     6     3    10    1
     7     4     5    1
     8     4    12    1
     9     4    13   am
    10     5     6    1
    11     5     7    1
    12     5    29    1
    13     6     8    1
    14     6    30    1
    15     6    31    1
    16     7     9    1
    17     7    32    1
    18     7    33    1
    19     8    34    1
    20     8    35    1
    21     9    36    1
    22     9    37    1
    23    10    11    1
    24    10    38    1
    25    10    39    1
    26    11    14    1
    27    11    40    1
    28    11    41    1
    29    12    15   ar
    30    12    16   ar
    31    13    17    1
    32    14    18   ar
    33    14    19   ar
    34    15    20   ar
    35    15    42    1
    36    16    21   ar
    37    16    43    1
    38    17    22   ar
    39    17    23   ar
    40    18    25   ar
    41    18    44    1
    42    19    26   ar
    43    19    45    1
    44    20    24   ar
    45    20    46    1
    46    21    24   ar
    47    21    47    1
    48    22    27   ar
    49    22    48    1
    50    23    49    1
    51    24    50    1
    52    25    28   ar
    53    25    51    1
    54    26    28   ar
    55    26    52    1
    56    27    53    1
    57    28    54    1
@<TRIPOS>MOLECULE
137700088
 54 57 0 0 0
SMALL
GASTEIGER

@<TRIPOS>ATOM
      1 CL         -7.0446   -3.1081    0.2835 Cl      1  UNL1       -0.0835
      2 O          -1.7344    2.6774   -0.9866 O.2     1  UNL1       -0.2749
      3 N          -2.2973    0.4578   -0.3436 N.am    1  UNL1       -0.2681
      4 N           1.9191    0.0879   -0.4641 N.3     1  UNL1       -0.3019
      5 C          -3.7325    2.4203    0.1679 C.3     1  UNL1        0.0361
      6 C          -4.0002    2.1517    1.6082 C.3     1  UNL1       -0.0412
      7 C          -3.6130    3.5280    1.1562 C.3     1  UNL1       -0.0412
      8 C          -0.9928   -0.1554   -0.3159 C.3     1  UNL1        0.0334
      9 C          -0.1578    0.3794    0.8478 C.3     1  UNL1       -0.0210
     10 C          -0.2587    0.0663   -1.6380 C.3     1  UNL1       -0.0210
     11 C          -2.4755    1.8693   -0.4359 C.2     1  UNL1        0.2231
     12 C           1.2617   -0.1902    0.8203 C.3     1  UNL1        0.0006
     13 C           1.1644   -0.4920   -1.5836 C.3     1  UNL1        0.0006
     14 C           3.2917   -0.4177   -0.4562 C.3     1  UNL1        0.0029
     15 C          -3.4584   -0.4136   -0.1899 C.ar    1  UNL1        0.0367
     16 C           4.2343    0.5672    0.2362 C.3     1  UNL1       -0.0149
     17 C          -4.4555   -0.4254   -1.1655 C.ar    1  UNL1       -0.0389
     18 C          -3.5705   -1.2349    0.9318 C.ar    1  UNL1       -0.0389
     19 C           5.6573    0.0680    0.2318 C.ar    1  UNL1       -0.0462
     20 C          -5.5647   -1.2584   -1.0189 C.ar    1  UNL1       -0.0416
     21 C          -4.6796   -2.0679    1.0784 C.ar    1  UNL1       -0.0416
     22 C          -5.6767   -2.0797    0.1031 C.ar    1  UNL1        0.0411
     23 C           6.1233   -0.7201    1.2840 C.ar    1  UNL1       -0.0585
     24 C           6.5073    0.3944   -0.8248 C.ar    1  UNL1       -0.0585
     25 C           7.4397   -1.1817    1.2798 C.ar    1  UNL1       -0.0615
     26 C           7.8235   -0.0672   -0.8291 C.ar    1  UNL1       -0.0615
     27 C           8.2897   -0.8552    0.2232 C.ar    1  UNL1       -0.0617
     28 H          -4.5784    2.4825   -0.5088 H       1  UNL1        0.0394
     29 H          -3.2727    1.6113    2.2016 H       1  UNL1        0.0273
     30 H          -5.0281    1.9895    1.9090 H       1  UNL1        0.0273
     31 H          -2.6281    3.8865    1.4298 H       1  UNL1        0.0273
     32 H          -4.3808    4.2922    1.1568 H       1  UNL1        0.0273
     33 H          -1.1037   -1.2407   -0.1857 H       1  UNL1        0.0505
     34 H          -0.6351    0.1255    1.8021 H       1  UNL1        0.0296
     35 H          -0.0971    1.4749    0.8171 H       1  UNL1        0.0296
     36 H          -0.1938    1.1282   -1.8963 H       1  UNL1        0.0296
     37 H          -0.8097   -0.4149   -2.4557 H       1  UNL1        0.0296
     38 H           1.8154    0.2664    1.6477 H       1  UNL1        0.0427
     39 H           1.2231   -1.2704    1.0149 H       1  UNL1        0.0427
     40 H           1.1297   -1.5868   -1.5051 H       1  UNL1        0.0427
     41 H           1.6566   -0.2491   -2.5335 H       1  UNL1        0.0427
     42 H           3.3529   -1.4169   -0.0040 H       1  UNL1        0.0430
     43 H           3.6508   -0.5352   -1.4883 H       1  UNL1        0.0430
     44 H           3.9323    0.7489    1.2745 H       1  UNL1        0.0326
     45 H           4.1914    1.5459   -0.2603 H       1  UNL1        0.0326
     46 H          -4.3771    0.2041   -2.0481 H       1  UNL1        0.0637
     47 H          -2.8078   -1.2322    1.7057 H       1  UNL1        0.0637
     48 H          -6.3331   -1.2584   -1.7877 H       1  UNL1        0.0633
     49 H          -4.7545   -2.7011    1.9587 H       1  UNL1        0.0633
     50 H           5.4699   -0.9829    2.1117 H       1  UNL1        0.0620
     51 H           6.1552    1.0061   -1.6512 H       1  UNL1        0.0620
     52 H           7.8026   -1.7958    2.0988 H       1  UNL1        0.0618
     53 H           8.4853    0.1865   -1.6520 H       1  UNL1        0.0618
     54 H           9.3146   -1.2147    0.2197 H       1  UNL1        0.0618
@<TRIPOS>BOND
     1     1    22    1
     2     2    11    2
     3     3     8    1
     4     3    11   am
     5     3    15    1
     6     4    12    1
     7     4    13    1
     8     4    14    1
     9     5     6    1
    10     5     7    1
    11     5    11    1
    12     5    28    1
    13     6     7    1
    14     6    29    1
    15     6    30    1
    16     7    31    1
    17     7    32    1
    18     8     9    1
    19     8    10    1
    20     8    33    1
    21     9    12    1
    22     9    34    1
    23     9    35    1
    24    10    13    1
    25    10    36    1
    26    10    37    1
    27    12    38    1
    28    12    39    1
    29    13    40    1
    30    13    41    1
    31    14    16    1
    32    14    42    1
    33    14    43    1
    34    15    17   ar
    35    15    18   ar
    36    16    19    1
    37    16    44    1
    38    16    45    1
    39    17    20   ar
    40    17    46    1
    41    18    21   ar
    42    18    47    1
    43    19    23   ar
    44    19    24   ar
    45    20    22   ar
    46    20    48    1
    47    21    22   ar
    48    21    49    1
    49    23    25   ar
    50    23    50    1
    51    24    26   ar
    52    24    51    1
    53    25    27   ar
    54    25    52    1
    55    26    27   ar
    56    26    53    1
    57    27    54    1
@<TRIPOS>MOLECULE
165361450
 57 60 0 0 0
SMALL
GASTEIGER

@<TRIPOS>ATOM
      1 O          -1.9346    2.1197   -0.3264 O.2     1  UNL1       -0.2752
      2 N          -2.3049   -0.2029   -0.0208 N.am    1  UNL1       -0.2683
      3 N           1.9041    0.0713    0.3607 N.3     1  UNL1       -0.3019
      4 C          -4.5760    2.8021   -0.6390 C.3     1  UNL1       -0.0328
      5 C          -4.8482    3.7193    0.5209 C.3     1  UNL1       -0.0495
      6 C          -5.9780    3.2707   -0.3635 C.3     1  UNL1       -0.0495
      7 C          -4.1959    1.3719   -0.3972 C.3     1  UNL1        0.0273
      8 C          -0.9349   -0.6050    0.1783 C.3     1  UNL1        0.0334
      9 C          -0.0916   -0.2939   -1.0579 C.3     1  UNL1       -0.0210
     10 C          -0.3367    0.0719    1.4118 C.3     1  UNL1       -0.0210
     11 C          -2.6945    1.1501   -0.2605 C.2     1  UNL1        0.2203
     12 C           1.3821   -0.6327   -0.8186 C.3     1  UNL1        0.0006
     13 C           1.1448   -0.2805    1.5686 C.3     1  UNL1        0.0006
     14 C           3.3248   -0.2236    0.5455 C.3     1  UNL1        0.0029
     15 C          -3.3452   -1.2292    0.0251 C.ar    1  UNL1        0.0366
     16 C           4.1677    0.6074   -0.4215 C.3     1  UNL1       -0.0149
     17 C          -3.7205   -1.8946   -1.1420 C.ar    1  UNL1       -0.0403
     18 C          -3.9628   -1.5422    1.2359 C.ar    1  UNL1       -0.0403
     19 C           5.6390    0.3174   -0.2627 C.ar    1  UNL1       -0.0462
     20 C          -4.7135   -2.8732   -1.0981 C.ar    1  UNL1       -0.0600
     21 C          -4.9558   -2.5207    1.2797 C.ar    1  UNL1       -0.0600
     22 C          -5.3312   -3.1862    0.1127 C.ar    1  UNL1       -0.0616
     23 C           6.4026    1.0610    0.6371 C.ar    1  UNL1       -0.0585
     24 C           6.2365   -0.6934   -1.0155 C.ar    1  UNL1       -0.0585
     25 C           7.7637    0.7936    0.7843 C.ar    1  UNL1       -0.0615
     26 C           7.5976   -0.9609   -0.8684 C.ar    1  UNL1       -0.0615
     27 C           8.3612   -0.2172    0.0314 C.ar    1  UNL1       -0.0617
     28 H          -4.0929    3.2162   -1.5170 H       1  UNL1        0.0305
     29 H          -4.5188    4.7476    0.4366 H       1  UNL1        0.0268
     30 H          -4.8034    3.3151    1.5247 H       1  UNL1        0.0268
     31 H          -6.6891    2.5646    0.0472 H       1  UNL1        0.0268
     32 H          -6.4083    3.9994   -1.0394 H       1  UNL1        0.0268
     33 H          -4.5626    0.7932   -1.2514 H       1  UNL1        0.0361
     34 H          -4.6954    1.0171    0.5103 H       1  UNL1        0.0361
     35 H          -0.9108   -1.6917    0.3418 H       1  UNL1        0.0505
     36 H          -0.4631   -0.8671   -1.9165 H       1  UNL1        0.0296
     37 H          -0.1618    0.7623   -1.3417 H       1  UNL1        0.0296
     38 H          -0.4296    1.1626    1.3603 H       1  UNL1        0.0296
     39 H          -0.8832   -0.2399    2.3105 H       1  UNL1        0.0296
     40 H           1.4905   -1.7197   -0.7046 H       1  UNL1        0.0427
     41 H           1.9287   -0.3491   -1.7237 H       1  UNL1        0.0427
     42 H           1.5329    0.2764    2.4304 H       1  UNL1        0.0427
     43 H           1.2486   -1.3494    1.7975 H       1  UNL1        0.0427
     44 H           3.5323   -1.2970    0.4403 H       1  UNL1        0.0430
     45 H           3.6337    0.0471    1.5646 H       1  UNL1        0.0430
     46 H           3.8958    0.4211   -1.4667 H       1  UNL1        0.0326
     47 H           3.9884    1.6783   -0.2564 H       1  UNL1        0.0326
     48 H          -3.2451   -1.6578   -2.0902 H       1  UNL1        0.0636
     49 H          -3.6771   -1.0296    2.1507 H       1  UNL1        0.0636
     50 H          -5.0059   -3.3914   -2.0067 H       1  UNL1        0.0618
     51 H          -5.4368   -2.7645    2.2224 H       1  UNL1        0.0618
     52 H          -6.1044   -3.9481    0.1469 H       1  UNL1        0.0618
     53 H           5.9482    1.8499    1.2305 H       1  UNL1        0.0620
     54 H           5.6516   -1.2809   -1.7183 H       1  UNL1        0.0620
     55 H           8.3582    1.3722    1.4852 H       1  UNL1        0.0618
     56 H           8.0628   -1.7483   -1.4541 H       1  UNL1        0.0618
     57 H           9.4209   -0.4256    0.1461 H       1  UNL1        0.0618
@<TRIPOS>BOND
     1     1    11    2
     2     2     8    1
     3     2    11   am
     4     2    15    1
     5     3    12    1
     6     3    13    1
     7     3    14    1
     8     4     5    1
     9     4     6    1
    10     4     7    1
    11     4    28    1
    12     5     6    1
    13     5    29    1
    14     5    30    1
    15     6    31    1
    16     6    32    1
    17     7    11    1
    18     7    33    1
    19     7    34    1
    20     8     9    1
    21     8    10    1
    22     8    35    1
    23     9    12    1
    24     9    36    1
    25     9    37    1
    26    10    13    1
    27    10    38    1
    28    10    39    1
    29    12    40    1
    30    12    41    1
    31    13    42    1
    32    13    43    1
    33    14    16    1
    34    14    44    1
    35    14    45    1
    36    15    17   ar
    37    15    18   ar
    38    16    19    1
    39    16    46    1
    40    16    47    1
    41    17    20   ar
    42    17    48    1
    43    18    21   ar
    44    18    49    1
    45    19    23   ar
    46    19    24   ar
    47    20    22   ar
    48    20    50    1
    49    21    22   ar
    50    21    51    1
    51    22    52    1
    52    23    25   ar
    53    23    53    1
    54    24    26   ar
    55    24    54    1
    56    25    27   ar
    57    25    55    1
    58    26    27   ar
    59    26    56    1
    60    27    57    1
@<TRIPOS>MOLECULE
165362282
 68 70 0 0 0
SMALL
GASTEIGER

@<TRIPOS>ATOM
      1 O          -4.3836    2.4473   -1.1228 O.2     1  UNL1       -0.2753
      2 O           5.1585   -2.5534   -1.2688 O.3     1  UNL1       -0.4913
      3 O           6.5991    1.1285    1.4345 O.3     1  UNL1       -0.4913
      4 O           7.2027   -1.1095   -0.0814 O.3     1  UNL1       -0.4885
      5 N          -0.1341    1.4336   -0.5379 N.3     1  UNL1       -0.2992
      6 N          -4.1942    0.2927   -0.1500 N.am    1  UNL1       -0.2683
      7 C          -2.7580    0.2441   -0.0365 C.3     1  UNL1        0.0334
      8 C          -2.2303    1.4255    0.7782 C.3     1  UNL1       -0.0210
      9 C          -2.1037    0.2187   -1.4176 C.3     1  UNL1       -0.0210
     10 C          -0.7000    1.4263    0.8182 C.3     1  UNL1        0.0009
     11 C          -0.5775    0.2612   -1.3046 C.3     1  UNL1        0.0009
     12 C           1.3266    1.4863   -0.4825 C.3     1  UNL1        0.0116
     13 C           1.8161    0.5024    0.5946 C.3     1  UNL1       -0.0120
     14 C           1.7508    2.9271   -0.1971 C.3     1  UNL1       -0.0492
     15 C          -4.9535   -0.8215    0.4152 C.ar    1  UNL1        0.0366
     16 C          -4.8968    1.4109   -0.6935 C.2     1  UNL1        0.2198
     17 C           3.2522    0.0727    0.4134 C.ar    1  UNL1       -0.0388
     18 C          -6.4115    1.2430   -0.7695 C.3     1  UNL1        0.0217
     19 C          -5.8167   -0.6038    1.4892 C.ar    1  UNL1       -0.0403
     20 C          -4.8151   -2.1022   -0.1197 C.ar    1  UNL1       -0.0403
     21 C           4.2789    0.8026    1.0122 C.ar    1  UNL1       -0.0128
     22 C           3.5523   -1.0541   -0.3521 C.ar    1  UNL1       -0.0128
     23 C          -7.0325    2.0103   -1.9270 C.3     1  UNL1       -0.0570
     24 C           4.8790   -1.4510   -0.5186 C.ar    1  UNL1        0.1654
     25 C           5.6057    0.4058    0.8457 C.ar    1  UNL1        0.1654
     26 C          -6.5413   -1.6669    2.0281 C.ar    1  UNL1       -0.0600
     27 C          -5.5398   -3.1653    0.4192 C.ar    1  UNL1       -0.0600
     28 C           5.9058   -0.7210    0.0803 C.ar    1  UNL1        0.2035
     29 C          -6.4029   -2.9476    1.4930 C.ar    1  UNL1       -0.0616
     30 C           4.0509   -3.2423   -1.8457 C.3     1  UNL1        0.0790
     31 C           6.2064    2.2661    2.2000 C.3     1  UNL1        0.0790
     32 C           7.9064   -0.5665   -1.1962 C.3     1  UNL1        0.0791
     33 H          -2.4720   -0.6763    0.4917 H       1  UNL1        0.0505
     34 H          -2.6250    1.3782    1.8010 H       1  UNL1        0.0296
     35 H          -2.5561    2.3879    0.3705 H       1  UNL1        0.0296
     36 H          -2.4041   -0.6851   -1.9614 H       1  UNL1        0.0296
     37 H          -2.4348    1.0672   -2.0288 H       1  UNL1        0.0296
     38 H          -0.3936    2.3151    1.3807 H       1  UNL1        0.0427
     39 H          -0.4276    0.5473    1.4124 H       1  UNL1        0.0427
     40 H          -0.2340   -0.6830   -0.8668 H       1  UNL1        0.0427
     41 H          -0.1700    0.3087   -2.3222 H       1  UNL1        0.0427
     42 H           1.7433    1.2240   -1.4642 H       1  UNL1        0.0463
     43 H           1.7237    0.9307    1.6027 H       1  UNL1        0.0328
     44 H           1.2422   -0.4320    0.6147 H       1  UNL1        0.0328
     45 H           1.5115    3.2508    0.8206 H       1  UNL1        0.0245
     46 H           1.2742    3.6234   -0.8968 H       1  UNL1        0.0245
     47 H           2.8327    3.0389   -0.3263 H       1  UNL1        0.0245
     48 H          -6.6978    0.2007   -0.9276 H       1  UNL1        0.0356
     49 H          -6.8491    1.6044    0.1664 H       1  UNL1        0.0356
     50 H          -5.9154    0.3808    1.9384 H       1  UNL1        0.0636
     51 H          -4.1504   -2.2856   -0.9595 H       1  UNL1        0.0636
     52 H           3.9859    1.6675    1.5975 H       1  UNL1        0.0658
     53 H           2.7133   -1.5789   -0.7968 H       1  UNL1        0.0658
     54 H          -6.8683    3.0875   -1.8194 H       1  UNL1        0.0234
     55 H          -6.5957    1.6986   -2.8816 H       1  UNL1        0.0234
     56 H          -8.1120    1.8344   -1.9673 H       1  UNL1        0.0234
     57 H          -7.2083   -1.4989    2.8686 H       1  UNL1        0.0618
     58 H          -5.4327   -4.1624    0.0021 H       1  UNL1        0.0618
     59 H          -6.9662   -3.7756    1.9134 H       1  UNL1        0.0618
     60 H           4.4566   -4.0911   -2.4061 H       1  UNL1        0.0660
     61 H           3.3885   -3.6568   -1.0781 H       1  UNL1        0.0660
     62 H           3.5152   -2.6142   -2.5657 H       1  UNL1        0.0660
     63 H           7.1217    2.7205    2.5936 H       1  UNL1        0.0660
     64 H           5.7192    3.0238    1.5767 H       1  UNL1        0.0660
     65 H           5.5972    1.9808    3.0644 H       1  UNL1        0.0660
     66 H           8.9229   -0.9691   -1.1886 H       1  UNL1        0.0660
     67 H           7.4230   -0.8552   -2.1349 H       1  UNL1        0.0660
     68 H           7.9620    0.5242   -1.1228 H       1  UNL1        0.0660
@<TRIPOS>BOND
     1     1    16    2
     2     2    24    1
     3     2    30    1
     4     3    25    1
     5     3    31    1
     6     4    28    1
     7     4    32    1
     8     5    10    1
     9     5    11    1
    10     5    12    1
    11     6     7    1
    12     6    15    1
    13     6    16   am
    14     7     8    1
    15     7     9    1
    16     7    33    1
    17     8    10    1
    18     8    34    1
    19     8    35    1
    20     9    11    1
    21     9    36    1
    22     9    37    1
    23    10    38    1
    24    10    39    1
    25    11    40    1
    26    11    41    1
    27    12    13    1
    28    12    14    1
    29    12    42    1
    30    13    17    1
    31    13    43    1
    32    13    44    1
    33    14    45    1
    34    14    46    1
    35    14    47    1
    36    15    19   ar
    37    15    20   ar
    38    16    18    1
    39    17    21   ar
    40    17    22   ar
    41    18    23    1
    42    18    48    1
    43    18    49    1
    44    19    26   ar
    45    19    50    1
    46    20    27   ar
    47    20    51    1
    48    21    25   ar
    49    21    52    1
    50    22    24   ar
    51    22    53    1
    52    23    54    1
    53    23    55    1
    54    23    56    1
    55    24    28   ar
    56    25    28   ar
    57    26    29   ar
    58    26    57    1
    59    27    29   ar
    60    27    58    1
    61    29    59    1
    62    30    60    1
    63    30    61    1
    64    30    62    1
    65    31    63    1
    66    31    64    1
    67    31    65    1
    68    32    66    1
    69    32    67    1
    70    32    68    1
@<TRIPOS>MOLECULE
14802204
 58 61 0 0 0
SMALL
GASTEIGER

@<TRIPOS>ATOM
      1 O          -2.9854   -3.2490    1.1140 O.2     1  UNL1       -0.2753
      2 N           1.9200   -0.8214   -0.3736 N.3     1  UNL1       -0.3019
      3 N          -2.2673   -1.2261    0.1085 N.am    1  UNL1       -0.2663
      4 N          -3.0187    1.0692    1.4717 N.ar    1  UNL1       -0.2531
      5 C          -0.8569   -1.3548    0.3781 C.3     1  UNL1        0.0335
      6 C          -0.1550   -2.1165   -0.7459 C.3     1  UNL1       -0.0210
      7 C          -0.2065    0.0150    0.5738 C.3     1  UNL1       -0.0210
      8 C           1.3570   -2.1707   -0.5204 C.3     1  UNL1        0.0006
      9 C           1.3070   -0.1102    0.7568 C.3     1  UNL1        0.0006
     10 C           3.3720   -0.8881   -0.2091 C.3     1  UNL1        0.0029
     11 C          -2.7344   -0.0403   -0.6064 C.ar    1  UNL1        0.0625
     12 C           3.9858    0.5123   -0.1877 C.3     1  UNL1       -0.0149
     13 C          -3.2286   -2.2028    0.5072 C.2     1  UNL1        0.2198
     14 C          -3.0875    1.0521    0.1271 C.ar    1  UNL1        0.0923
     15 C          -4.6642   -1.9030    0.0850 C.3     1  UNL1        0.0217
     16 C           5.4856    0.4570   -0.0411 C.ar    1  UNL1       -0.0462
     17 C          -2.7737   -0.1428   -1.9712 C.ar    1  UNL1       -0.0382
     18 C          -3.5318    2.1699   -0.6099 C.ar    1  UNL1        0.0022
     19 C          -3.2124    0.9618   -2.6907 C.ar    1  UNL1       -0.0593
     20 C          -5.6490   -2.9663    0.5474 C.3     1  UNL1       -0.0570
     21 C          -3.5911    2.1170   -2.0129 C.ar    1  UNL1       -0.0524
     22 C           6.0465    0.4641    1.2272 C.ar    1  UNL1       -0.0585
     23 C           6.2793    0.3994   -1.1768 C.ar    1  UNL1       -0.0585
     24 C          -3.9071    3.3198    0.0977 C.ar    1  UNL1       -0.0511
     25 C           7.4338    0.4127    1.3630 C.ar    1  UNL1       -0.0615
     26 C           7.6666    0.3479   -1.0409 C.ar    1  UNL1       -0.0615
     27 C          -3.3902    2.1987    2.1168 C.ar    1  UNL1        0.0283
     28 C          -3.8373    3.3405    1.4833 C.ar    1  UNL1       -0.0430
     29 C           8.2438    0.3545    0.2290 C.ar    1  UNL1       -0.0617
     30 H          -0.7456   -1.9344    1.3041 H       1  UNL1        0.0505
     31 H          -0.3452   -1.6429   -1.7164 H       1  UNL1        0.0296
     32 H          -0.5521   -3.1365   -0.8167 H       1  UNL1        0.0296
     33 H          -0.6031    0.5083    1.4665 H       1  UNL1        0.0296
     34 H          -0.3637    0.6816   -0.2827 H       1  UNL1        0.0296
     35 H           1.5751   -2.7841    0.3639 H       1  UNL1        0.0427
     36 H           1.8115   -2.6719   -1.3838 H       1  UNL1        0.0427
     37 H           1.6686    0.9176    0.8420 H       1  UNL1        0.0427
     38 H           1.5250   -0.6177    1.7057 H       1  UNL1        0.0427
     39 H           3.6397   -1.4355    0.7050 H       1  UNL1        0.0430
     40 H           3.8075   -1.4462   -1.0486 H       1  UNL1        0.0430
     41 H           3.7259    1.0576   -1.1048 H       1  UNL1        0.0326
     42 H           3.6176    1.1252    0.6409 H       1  UNL1        0.0326
     43 H          -4.9822   -0.9479    0.5129 H       1  UNL1        0.0356
     44 H          -4.7182   -1.8471   -1.0064 H       1  UNL1        0.0356
     45 H          -2.4902   -1.0481   -2.4973 H       1  UNL1        0.0637
     46 H          -3.2625    0.9235   -3.7746 H       1  UNL1        0.0618
     47 H          -5.3969   -3.9457    0.1275 H       1  UNL1        0.0234
     48 H          -5.6467   -3.0566    1.6386 H       1  UNL1        0.0234
     49 H          -6.6639   -2.7096    0.2282 H       1  UNL1        0.0234
     50 H          -3.9337    2.9759   -2.5856 H       1  UNL1        0.0624
     51 H           5.4246    0.5064    2.1169 H       1  UNL1        0.0620
     52 H           5.8391    0.3918   -2.1699 H       1  UNL1        0.0620
     53 H          -4.2560    4.2061   -0.4274 H       1  UNL1        0.0625
     54 H           7.8833    0.4170    2.3518 H       1  UNL1        0.0618
     55 H           8.2976    0.3020   -1.9238 H       1  UNL1        0.0618
     56 H          -3.3141    2.1562    3.1983 H       1  UNL1        0.0830
     57 H          -4.1234    4.2211    2.0462 H       1  UNL1        0.0633
     58 H           9.3239    0.3140    0.3347 H       1  UNL1        0.0618
@<TRIPOS>BOND
     1     1    13    2
     2     2     8    1
     3     2     9    1
     4     2    10    1
     5     3     5    1
     6     3    11    1
     7     3    13   am
     8     4    14   ar
     9     4    27   ar
    10     5     6    1
    11     5     7    1
    12     5    30    1
    13     6     8    1
    14     6    31    1
    15     6    32    1
    16     7     9    1
    17     7    33    1
    18     7    34    1
    19     8    35    1
    20     8    36    1
    21     9    37    1
    22     9    38    1
    23    10    12    1
    24    10    39    1
    25    10    40    1
    26    11    14   ar
    27    11    17   ar
    28    12    16    1
    29    12    41    1
    30    12    42    1
    31    13    15    1
    32    14    18   ar
    33    15    20    1
    34    15    43    1
    35    15    44    1
    36    16    22   ar
    37    16    23   ar
    38    17    19   ar
    39    17    45    1
    40    18    21   ar
    41    18    24   ar
    42    19    21   ar
    43    19    46    1
    44    20    47    1
    45    20    48    1
    46    20    49    1
    47    21    50    1
    48    22    25   ar
    49    22    51    1
    50    23    26   ar
    51    23    52    1
    52    24    28   ar
    53    24    53    1
    54    25    29   ar
    55    25    54    1
    56    26    29   ar
    57    26    55    1
    58    27    28   ar
    59    27    56    1
    60    28    57    1
    61    29    58    1
@<TRIPOS>MOLECULE
137700017
 54 57 0 0 0
SMALL
GASTEIGER

@<TRIPOS>ATOM
      1 F          -6.7395   -2.9187    0.2645 F       1  UNL1       -0.2055
      2 O          -1.7591    2.6553   -0.9968 O.2     1  UNL1       -0.2749
      3 N          -2.3107    0.4360   -0.3431 N.am    1  UNL1       -0.2680
      4 N           1.9074    0.0864   -0.4644 N.3     1  UNL1       -0.3019
      5 C          -3.7553    2.3938    0.1601 C.3     1  UNL1        0.0361
      6 C          -4.0208    2.1306    1.6018 C.3     1  UNL1       -0.0412
      7 C          -3.6408    3.5067    1.1431 C.3     1  UNL1       -0.0412
      8 C          -1.0032   -0.1706   -0.3133 C.3     1  UNL1        0.0334
      9 C          -0.1702    0.3738    0.8474 C.3     1  UNL1       -0.0210
     10 C          -0.2710    0.0485   -1.6369 C.3     1  UNL1       -0.0210
     11 C          -2.4960    1.8462   -0.4419 C.2     1  UNL1        0.2231
     12 C           1.2521   -0.1889    0.8217 C.3     1  UNL1        0.0006
     13 C           1.1549   -0.5025   -1.5807 C.3     1  UNL1        0.0006
     14 C           3.2825   -0.4124   -0.4550 C.3     1  UNL1        0.0029
     15 C          -3.4674   -0.4404   -0.1847 C.ar    1  UNL1        0.0367
     16 C           4.2206    0.5805    0.2322 C.3     1  UNL1       -0.0149
     17 C          -4.4651   -0.4618   -1.1594 C.ar    1  UNL1       -0.0376
     18 C          -3.5753   -1.2559    0.9418 C.ar    1  UNL1       -0.0376
     19 C           5.6460    0.0882    0.2293 C.ar    1  UNL1       -0.0462
     20 C          -5.5707   -1.2986   -1.0076 C.ar    1  UNL1       -0.0247
     21 C          -4.6807   -2.0928    1.0936 C.ar    1  UNL1       -0.0247
     22 C          -5.6785   -2.1141    0.1191 C.ar    1  UNL1        0.1235
     23 C           6.1166   -0.6926    1.2850 C.ar    1  UNL1       -0.0585
     24 C           6.4938    0.4139   -0.8293 C.ar    1  UNL1       -0.0585
     25 C           7.4352   -1.1477    1.2821 C.ar    1  UNL1       -0.0615
     26 C           7.8123   -0.0412   -0.8322 C.ar    1  UNL1       -0.0615
     27 C           8.2830   -0.8219    0.2235 C.ar    1  UNL1       -0.0617
     28 H          -4.6019    2.4487   -0.5165 H       1  UNL1        0.0394
     29 H          -3.2903    1.5967    2.1973 H       1  UNL1        0.0273
     30 H          -5.0478    1.9649    1.9040 H       1  UNL1        0.0273
     31 H          -2.6575    3.8713    1.4145 H       1  UNL1        0.0273
     32 H          -4.4123    4.2671    1.1406 H       1  UNL1        0.0273
     33 H          -1.1087   -1.2557   -0.1779 H       1  UNL1        0.0505
     34 H          -0.6457    0.1220    1.8031 H       1  UNL1        0.0296
     35 H          -0.1149    1.4694    0.8115 H       1  UNL1        0.0296
     36 H          -0.2115    1.1096   -1.9002 H       1  UNL1        0.0296
     37 H          -0.8200   -0.4392   -2.4519 H       1  UNL1        0.0296
     38 H           1.8041    0.2743    1.6466 H       1  UNL1        0.0427
     39 H           1.2190   -1.2684    1.0214 H       1  UNL1        0.0427
     40 H           1.1257   -1.5970   -1.4971 H       1  UNL1        0.0427
     41 H           1.6453   -0.2616   -2.5320 H       1  UNL1        0.0427
     42 H           3.3489   -1.4091    0.0019 H       1  UNL1        0.0430
     43 H           3.6416   -0.5329   -1.4867 H       1  UNL1        0.0430
     44 H           3.9183    0.7655    1.2699 H       1  UNL1        0.0326
     45 H           4.1725    1.5566   -0.2688 H       1  UNL1        0.0326
     46 H          -4.3902    0.1633   -2.0454 H       1  UNL1        0.0637
     47 H          -2.8122   -1.2458    1.7152 H       1  UNL1        0.0637
     48 H          -6.3468   -1.3167   -1.7669 H       1  UNL1        0.0647
     49 H          -4.7660   -2.7265    1.9714 H       1  UNL1        0.0647
     50 H           5.4649   -0.9547    2.1142 H       1  UNL1        0.0620
     51 H           6.1382    1.0200   -1.6583 H       1  UNL1        0.0620
     52 H           7.8017   -1.7561    2.1037 H       1  UNL1        0.0618
     53 H           8.4724    0.2119   -1.6567 H       1  UNL1        0.0618
     54 H           9.3096   -1.1764    0.2211 H       1  UNL1        0.0618
@<TRIPOS>BOND
     1     1    22    1
     2     2    11    2
     3     3     8    1
     4     3    11   am
     5     3    15    1
     6     4    12    1
     7     4    13    1
     8     4    14    1
     9     5     6    1
    10     5     7    1
    11     5    11    1
    12     5    28    1
    13     6     7    1
    14     6    29    1
    15     6    30    1
    16     7    31    1
    17     7    32    1
    18     8     9    1
    19     8    10    1
    20     8    33    1
    21     9    12    1
    22     9    34    1
    23     9    35    1
    24    10    13    1
    25    10    36    1
    26    10    37    1
    27    12    38    1
    28    12    39    1
    29    13    40    1
    30    13    41    1
    31    14    16    1
    32    14    42    1
    33    14    43    1
    34    15    17   ar
    35    15    18   ar
    36    16    19    1
    37    16    44    1
    38    16    45    1
    39    17    20   ar
    40    17    46    1
    41    18    21   ar
    42    18    47    1
    43    19    23   ar
    44    19    24   ar
    45    20    22   ar
    46    20    48    1
    47    21    22   ar
    48    21    49    1
    49    23    25   ar
    50    23    50    1
    51    24    26   ar
    52    24    51    1
    53    25    27   ar
    54    25    52    1
    55    26    27   ar
    56    26    53    1
    57    27    54    1
@<TRIPOS>MOLECULE
165365116
 57 59 0 0 0
SMALL
GASTEIGER

@<TRIPOS>ATOM
      1 O          -1.9140    2.2026   -1.2220 O.2     1  UNL1       -0.2700
      2 N           1.8850    0.2007    0.2505 N.3     1  UNL1       -0.3019
      3 N          -2.3169    0.0601   -0.2600 N.am    1  UNL1       -0.2646
      4 C          -0.9764   -0.3686    0.0517 C.3     1  UNL1        0.0337
      5 C          -0.0767   -0.2807   -1.1808 C.3     1  UNL1       -0.0210
      6 C          -0.3877    0.4555    1.1972 C.3     1  UNL1       -0.0210
      7 C           1.3692   -0.6455   -0.8342 C.3     1  UNL1        0.0006
      8 C           1.0682    0.0647    1.4644 C.3     1  UNL1        0.0006
      9 C           3.2820   -0.1265    0.5347 C.3     1  UNL1        0.0029
     10 C           4.1979    0.5149   -0.5073 C.3     1  UNL1       -0.0149
     11 C          -3.3998   -0.9152   -0.1028 C.ar    1  UNL1        0.0369
     12 C          -2.6362    1.3980   -0.6316 C.2     1  UNL1        0.2465
     13 C           5.6466    0.1866   -0.2476 C.ar    1  UNL1       -0.0462
     14 C          -4.0206    1.8529   -0.2963 C.2     1  UNL1        0.0076
     15 C          -3.5985   -1.5442    1.1263 C.ar    1  UNL1       -0.0403
     16 C          -4.2319   -1.2138   -1.1818 C.ar    1  UNL1       -0.0403
     17 C           6.4151    1.0200    0.5651 C.ar    1  UNL1       -0.0585
     18 C           6.2184   -0.9496   -0.8200 C.ar    1  UNL1       -0.0585
     19 C          -4.6293   -2.4718    1.2763 C.ar    1  UNL1       -0.0600
     20 C          -5.2627   -2.1413   -1.0316 C.ar    1  UNL1       -0.0600
     21 C          -4.8375    2.3491   -1.4452 C.3     1  UNL1       -0.0351
     22 C          -4.3411    1.8269    1.0090 C.2     1  UNL1       -0.0793
     23 C          -5.4614   -2.7704    0.1973 C.ar    1  UNL1       -0.0616
     24 C           7.7553    0.7172    0.8055 C.ar    1  UNL1       -0.0615
     25 C           7.5586   -1.2525   -0.5796 C.ar    1  UNL1       -0.0615
     26 C           8.3271   -0.4190    0.2331 C.ar    1  UNL1       -0.0617
     27 C          -5.6328    2.2501    1.6297 C.3     1  UNL1       -0.0461
     28 H          -0.9965   -1.4217    0.3638 H       1  UNL1        0.0505
     29 H          -0.4478   -0.9549   -1.9627 H       1  UNL1        0.0296
     30 H          -0.0784    0.7246   -1.6153 H       1  UNL1        0.0296
     31 H          -0.9784    0.3106    2.1098 H       1  UNL1        0.0296
     32 H          -0.4287    1.5285    0.9705 H       1  UNL1        0.0296
     33 H           1.4195   -1.7076   -0.5590 H       1  UNL1        0.0427
     34 H           1.9600   -0.5228   -1.7476 H       1  UNL1        0.0427
     35 H           1.4536    0.7253    2.2508 H       1  UNL1        0.0427
     36 H           1.1107   -0.9622    1.8510 H       1  UNL1        0.0427
     37 H           3.4392   -1.2117    0.5955 H       1  UNL1        0.0430
     38 H           3.5689    0.2775    1.5154 H       1  UNL1        0.0430
     39 H           3.9531    0.1889   -1.5246 H       1  UNL1        0.0326
     40 H           4.0668    1.6054   -0.5074 H       1  UNL1        0.0326
     41 H          -2.9651   -1.3179    1.9796 H       1  UNL1        0.0636
     42 H          -4.0800   -0.7433   -2.1494 H       1  UNL1        0.0636
     43 H           5.9805    1.9071    1.0182 H       1  UNL1        0.0620
     44 H           5.6294   -1.6077   -1.4533 H       1  UNL1        0.0620
     45 H          -4.7853   -2.9602    2.2337 H       1  UNL1        0.0618
     46 H          -5.9087   -2.3762   -1.8725 H       1  UNL1        0.0618
     47 H          -4.5078    3.3502   -1.7410 H       1  UNL1        0.0279
     48 H          -4.7320    1.6873   -2.3110 H       1  UNL1        0.0279
     49 H          -5.9039    2.3956   -1.2103 H       1  UNL1        0.0279
     50 H          -3.6032    1.4830    1.7326 H       1  UNL1        0.0573
     51 H          -6.2639   -3.4928    0.3142 H       1  UNL1        0.0618
     52 H           8.3536    1.3658    1.4388 H       1  UNL1        0.0618
     53 H           8.0038   -2.1375   -1.0248 H       1  UNL1        0.0618
     54 H           9.3706   -0.6550    0.4204 H       1  UNL1        0.0618
     55 H          -5.4435    3.0202    2.3841 H       1  UNL1        0.0272
     56 H          -6.1018    1.3946    2.1254 H       1  UNL1        0.0272
     57 H          -6.3454    2.6582    0.9096 H       1  UNL1        0.0272
@<TRIPOS>BOND
     1     1    12    2
     2     2     7    1
     3     2     8    1
     4     2     9    1
     5     3     4    1
     6     3    11    1
     7     3    12   am
     8     4     5    1
     9     4     6    1
    10     4    28    1
    11     5     7    1
    12     5    29    1
    13     5    30    1
    14     6     8    1
    15     6    31    1
    16     6    32    1
    17     7    33    1
    18     7    34    1
    19     8    35    1
    20     8    36    1
    21     9    10    1
    22     9    37    1
    23     9    38    1
    24    10    13    1
    25    10    39    1
    26    10    40    1
    27    11    15   ar
    28    11    16   ar
    29    12    14    1
    30    13    17   ar
    31    13    18   ar
    32    14    21    1
    33    14    22    2
    34    15    19   ar
    35    15    41    1
    36    16    20   ar
    37    16    42    1
    38    17    24   ar
    39    17    43    1
    40    18    25   ar
    41    18    44    1
    42    19    23   ar
    43    19    45    1
    44    20    23   ar
    45    20    46    1
    46    21    47    1
    47    21    48    1
    48    21    49    1
    49    22    27    1
    50    22    50    1
    51    23    51    1
    52    24    26   ar
    53    24    52    1
    54    25    26   ar
    55    25    53    1
    56    26    54    1
    57    27    55    1
    58    27    56    1
    59    27    57    1
@<TRIPOS>MOLECULE
165361426
 56 59 0 0 0
SMALL
GASTEIGER

@<TRIPOS>ATOM
      1 O          -3.3308    2.4049   -1.1263 O.2     1  UNL1       -0.2753
      2 O           8.2099   -0.3310    0.4293 O.2     1  UNL1       -0.4629
      3 N           0.5047    0.5064    0.3195 N.3     1  UNL1       -0.3019
      4 N          -3.6931    0.2589   -0.1841 N.am    1  UNL1       -0.2683
      5 C          -2.3418   -0.1351    0.1269 C.3     1  UNL1        0.0334
      6 C          -1.7723    0.7072    1.2689 C.3     1  UNL1       -0.0210
      7 C          -1.4464   -0.0286   -1.1073 C.3     1  UNL1       -0.0210
      8 C          -0.3067    0.3539    1.5351 C.3     1  UNL1        0.0006
      9 C           0.0087   -0.3560   -0.7618 C.3     1  UNL1        0.0006
     10 C           1.9099    0.2152    0.6025 C.3     1  UNL1        0.0029
     11 C           2.8079    0.8759   -0.4430 C.3     1  UNL1       -0.0148
     12 C          -4.7431   -0.7452   -0.0202 C.ar    1  UNL1        0.0366
     13 C          -4.0540    1.5931   -0.5436 C.2     1  UNL1        0.2198
     14 C           4.2648    0.5848   -0.1844 C.ar    1  UNL1       -0.0454
     15 C          -5.4861    1.9877   -0.1943 C.3     1  UNL1        0.0217
     16 C          -5.5800   -1.0607   -1.0905 C.ar    1  UNL1       -0.0403
     17 C          -4.9081   -1.3872    1.2071 C.ar    1  UNL1       -0.0403
     18 C           4.8529   -0.5480   -0.7638 C.ar    1  UNL1       -0.0478
     19 C           5.0067    1.4467    0.6273 C.ar    1  UNL1       -0.0550
     20 C          -5.6341    3.4738    0.0953 C.3     1  UNL1       -0.0570
     21 C           6.2122   -0.8049   -0.5130 C.ar    1  UNL1        0.0204
     22 C          -6.5821   -2.0183   -0.9336 C.ar    1  UNL1       -0.0600
     23 C          -5.9102   -2.3448    1.3640 C.ar    1  UNL1       -0.0600
     24 C           6.3593    1.2104    0.8901 C.ar    1  UNL1       -0.0185
     25 C           6.9161    0.0769    0.3006 C.ar    1  UNL1        0.1348
     26 C          -6.7472   -2.6602    0.2937 C.ar    1  UNL1       -0.0616
     27 C           7.1447   -1.8049   -0.8959 C.ar    1  UNL1       -0.0161
     28 C           8.3383   -1.4710   -0.2988 C.ar    1  UNL1        0.0931
     29 H          -2.3325   -1.1876    0.4417 H       1  UNL1        0.0505
     30 H          -2.3578    0.5507    2.1829 H       1  UNL1        0.0296
     31 H          -1.8398    1.7783    1.0393 H       1  UNL1        0.0296
     32 H          -1.8015   -0.7149   -1.8862 H       1  UNL1        0.0296
     33 H          -1.4739    0.9744   -1.5458 H       1  UNL1        0.0296
     34 H           0.0632    1.0265    2.3187 H       1  UNL1        0.0427
     35 H          -0.2379   -0.6703    1.9249 H       1  UNL1        0.0427
     36 H           0.0860   -1.4156   -0.4832 H       1  UNL1        0.0427
     37 H           0.5949   -0.2216   -1.6765 H       1  UNL1        0.0427
     38 H           2.1879    0.6293    1.5815 H       1  UNL1        0.0430
     39 H           2.0942   -0.8656    0.6666 H       1  UNL1        0.0430
     40 H           2.5692    0.5410   -1.4589 H       1  UNL1        0.0326
     41 H           2.6488    1.9626   -0.4468 H       1  UNL1        0.0326
     42 H          -5.8257    1.4513    0.6970 H       1  UNL1        0.0356
     43 H          -6.1350    1.7195   -1.0342 H       1  UNL1        0.0356
     44 H          -5.4566   -0.5754   -2.0552 H       1  UNL1        0.0636
     45 H          -4.2721   -1.1474    2.0548 H       1  UNL1        0.0636
     46 H           4.2739   -1.2179   -1.3929 H       1  UNL1        0.0627
     47 H           4.5348    2.3208    1.0711 H       1  UNL1        0.0621
     48 H          -5.3825    4.0740   -0.7852 H       1  UNL1        0.0234
     49 H          -6.6644    3.7063    0.3820 H       1  UNL1        0.0234
     50 H          -4.9705    3.7803    0.9105 H       1  UNL1        0.0234
     51 H          -7.2324   -2.2654   -1.7675 H       1  UNL1        0.0618
     52 H          -6.0403   -2.8432    2.3202 H       1  UNL1        0.0618
     53 H           6.9411    1.8739    1.5189 H       1  UNL1        0.0654
     54 H          -7.5275   -3.4057    0.4159 H       1  UNL1        0.0618
     55 H           6.9681   -2.6629   -1.5289 H       1  UNL1        0.0655
     56 H           9.3212   -1.9189   -0.2940 H       1  UNL1        0.1029
@<TRIPOS>BOND
     1     1    13    2
     2     2    25   ar
     3     2    28   ar
     4     3     8    1
     5     3     9    1
     6     3    10    1
     7     4     5    1
     8     4    12    1
     9     4    13   am
    10     5     6    1
    11     5     7    1
    12     5    29    1
    13     6     8    1
    14     6    30    1
    15     6    31    1
    16     7     9    1
    17     7    32    1
    18     7    33    1
    19     8    34    1
    20     8    35    1
    21     9    36    1
    22     9    37    1
    23    10    11    1
    24    10    38    1
    25    10    39    1
    26    11    14    1
    27    11    40    1
    28    11    41    1
    29    12    16   ar
    30    12    17   ar
    31    13    15    1
    32    14    18   ar
    33    14    19   ar
    34    15    20    1
    35    15    42    1
    36    15    43    1
    37    16    22   ar
    38    16    44    1
    39    17    23   ar
    40    17    45    1
    41    18    21   ar
    42    18    46    1
    43    19    24   ar
    44    19    47    1
    45    20    48    1
    46    20    49    1
    47    20    50    1
    48    21    25   ar
    49    21    27   ar
    50    22    26   ar
    51    22    51    1
    52    23    26   ar
    53    23    52    1
    54    24    25   ar
    55    24    53    1
    56    26    54    1
    57    27    28   ar
    58    27    55    1
    59    28    56    1
@<TRIPOS>MOLECULE
165365138
 54 56 0 0 0
SMALL
GASTEIGER

@<TRIPOS>ATOM
      1 F          -6.5716   -3.2050   -0.0628 F       1  UNL1       -0.2055
      2 O          -1.8019    2.6034    0.6195 O.2     1  UNL1       -0.2703
      3 N           1.9947    0.1603    0.4318 N.3     1  UNL1       -0.3019
      4 N          -2.2281    0.3162    0.1486 N.am    1  UNL1       -0.2648
      5 C          -0.8979   -0.2295    0.2517 C.3     1  UNL1        0.0337
      6 C          -0.0529    0.1644   -0.9596 C.3     1  UNL1       -0.0210
      7 C          -0.2161    0.2236    1.5431 C.3     1  UNL1       -0.0210
      8 C           1.3873   -0.3334   -0.8117 C.3     1  UNL1        0.0006
      9 C           1.2291   -0.2774    1.6072 C.3     1  UNL1        0.0006
     10 C           3.3851   -0.2822    0.5330 C.3     1  UNL1        0.0029
     11 C           4.2829    0.5896   -0.3444 C.3     1  UNL1       -0.0149
     12 C          -3.3660   -0.6069    0.0934 C.ar    1  UNL1        0.0370
     13 C          -2.4802    1.7178    0.0984 C.2     1  UNL1        0.2436
     14 C           5.7237    0.1509   -0.2699 C.ar    1  UNL1       -0.0462
     15 C          -3.4583   -1.5394   -0.9399 C.ar    1  UNL1       -0.0375
     16 C          -4.3566   -0.5519    1.0739 C.ar    1  UNL1       -0.0375
     17 C          -3.6981    2.1041   -0.6741 C.2     1  UNL1       -0.0035
     18 C           6.5700    0.6987    0.6941 C.ar    1  UNL1       -0.0585
     19 C           6.2104   -0.8018   -1.1649 C.ar    1  UNL1       -0.0585
     20 C          -4.5411   -2.4170   -0.9925 C.ar    1  UNL1       -0.0247
     21 C          -5.4394   -1.4296    1.0212 C.ar    1  UNL1       -0.0247
     22 C          -5.5317   -2.3622   -0.0120 C.ar    1  UNL1        0.1235
     23 C          -4.3849    3.2050   -0.3402 C.2     1  UNL1       -0.0822
     24 C           7.9029    0.2937    0.7634 C.ar    1  UNL1       -0.0615
     25 C           7.5434   -1.2070   -1.0956 C.ar    1  UNL1       -0.0615
     26 C           8.3897   -0.6591   -0.1316 C.ar    1  UNL1       -0.0617
     27 C          -5.5945    3.6748   -1.0798 C.3     1  UNL1       -0.0464
     28 H          -0.9644   -1.3258    0.2807 H       1  UNL1        0.0505
     29 H          -0.4907   -0.2497   -1.8760 H       1  UNL1        0.0296
     30 H          -0.0397    1.2544   -1.0892 H       1  UNL1        0.0296
     31 H          -0.1898    1.3128    1.6393 H       1  UNL1        0.0296
     32 H          -0.7733   -0.1501    2.4110 H       1  UNL1        0.0296
     33 H           1.3968   -1.4312   -0.8426 H       1  UNL1        0.0427
     34 H           1.9403    0.0174   -1.6889 H       1  UNL1        0.0427
     35 H           1.6838    0.1240    2.5212 H       1  UNL1        0.0427
     36 H           1.2376   -1.3721    1.6930 H       1  UNL1        0.0427
     37 H           3.7371   -0.1762    1.5684 H       1  UNL1        0.0430
     38 H           3.4901   -1.3468    0.2840 H       1  UNL1        0.0430
     39 H           3.9751    0.5671   -1.3960 H       1  UNL1        0.0326
     40 H           4.2069    1.6414   -0.0373 H       1  UNL1        0.0326
     41 H          -2.6977   -1.5902   -1.7143 H       1  UNL1        0.0637
     42 H          -4.2938    0.1651    1.8883 H       1  UNL1        0.0637
     43 H          -3.9990    1.4882   -1.5144 H       1  UNL1        0.0666
     44 H           6.2020    1.4405    1.3980 H       1  UNL1        0.0620
     45 H           5.5603   -1.2373   -1.9190 H       1  UNL1        0.0620
     46 H          -4.6141   -3.1422   -1.7975 H       1  UNL1        0.0647
     47 H          -6.2101   -1.3881    1.7851 H       1  UNL1        0.0647
     48 H          -4.0735    3.8145    0.5040 H       1  UNL1        0.0571
     49 H           8.5618    0.7198    1.5143 H       1  UNL1        0.0618
     50 H           7.9224   -1.9493   -1.7920 H       1  UNL1        0.0618
     51 H           9.4275   -0.9746   -0.0775 H       1  UNL1        0.0618
     52 H          -5.4219    4.6801   -1.4758 H       1  UNL1        0.0272
     53 H          -6.4529    3.7144   -0.4022 H       1  UNL1        0.0272
     54 H          -5.8507    3.0174   -1.9167 H       1  UNL1        0.0272
@<TRIPOS>BOND
     1     1    22    1
     2     2    13    2
     3     3     8    1
     4     3     9    1
     5     3    10    1
     6     4     5    1
     7     4    12    1
     8     4    13   am
     9     5     6    1
    10     5     7    1
    11     5    28    1
    12     6     8    1
    13     6    29    1
    14     6    30    1
    15     7     9    1
    16     7    31    1
    17     7    32    1
    18     8    33    1
    19     8    34    1
    20     9    35    1
    21     9    36    1
    22    10    11    1
    23    10    37    1
    24    10    38    1
    25    11    14    1
    26    11    39    1
    27    11    40    1
    28    12    15   ar
    29    12    16   ar
    30    13    17    1
    31    14    18   ar
    32    14    19   ar
    33    15    20   ar
    34    15    41    1
    35    16    21   ar
    36    16    42    1
    37    17    23    2
    38    17    43    1
    39    18    24   ar
    40    18    44    1
    41    19    25   ar
    42    19    45    1
    43    20    22   ar
    44    20    46    1
    45    21    22   ar
    46    21    47    1
    47    23    27    1
    48    23    48    1
    49    24    26   ar
    50    24    49    1
    51    25    26   ar
    52    25    50    1
    53    26    51    1
    54    27    52    1
    55    27    53    1
    56    27    54    1
@<TRIPOS>MOLECULE
46780730
 50 52 0 0 0
SMALL
GASTEIGER

@<TRIPOS>ATOM
      1 O          -1.2617   -2.4009    0.9862 O.2     1  UNL1       -0.2753
      2 N           1.9651    0.7252    0.6977 N.3     1  UNL1       -0.2980
      3 N          -2.1124   -0.3199    0.2385 N.am    1  UNL1       -0.2683
      4 C          -0.9239    0.4940    0.2965 C.3     1  UNL1        0.0334
      5 C          -0.2846    0.4260    1.6831 C.3     1  UNL1       -0.0210
      6 C           0.0853    0.0713   -0.7715 C.3     1  UNL1       -0.0210
      7 C           1.0317    1.2041    1.7267 C.3     1  UNL1        0.0009
      8 C           1.3889    0.8621   -0.6471 C.3     1  UNL1        0.0009
      9 C           3.2359    1.4444    0.7854 C.3     1  UNL1        0.0240
     10 C          -3.3758    0.3557   -0.0460 C.ar    1  UNL1        0.0366
     11 C          -2.0871   -1.7419    0.3487 C.2     1  UNL1        0.2198
     12 C           4.3692    0.6554    0.1853 C.ar    1  UNL1       -0.0334
     13 C          -3.2257   -2.4646   -0.3655 C.3     1  UNL1        0.0217
     14 C          -4.4517    0.2207    0.8313 C.ar    1  UNL1       -0.0403
     15 C          -3.5064    1.1356   -1.1949 C.ar    1  UNL1       -0.0403
     16 C           5.1084   -0.2193    0.9814 C.ar    1  UNL1       -0.0573
     17 C           4.6797    0.7995   -1.1668 C.ar    1  UNL1       -0.0573
     18 C          -2.8321   -3.8522   -0.8488 C.3     1  UNL1       -0.0570
     19 C          -5.6584    0.8656    0.5597 C.ar    1  UNL1       -0.0600
     20 C          -4.7129    1.7806   -1.4666 C.ar    1  UNL1       -0.0600
     21 C           6.1586   -0.9501    0.4254 C.ar    1  UNL1       -0.0615
     22 C           5.7297    0.0689   -1.7229 C.ar    1  UNL1       -0.0615
     23 C          -5.7890    1.6457   -0.5893 C.ar    1  UNL1       -0.0616
     24 C           6.4691   -0.8060   -0.9268 C.ar    1  UNL1       -0.0617
     25 H          -1.1910    1.5443    0.1166 H       1  UNL1        0.0505
     26 H          -0.9751    0.8328    2.4324 H       1  UNL1        0.0296
     27 H          -0.0773   -0.6055    1.9864 H       1  UNL1        0.0296
     28 H           0.3153   -0.9990   -0.6929 H       1  UNL1        0.0296
     29 H          -0.3393    0.2212   -1.7716 H       1  UNL1        0.0296
     30 H           0.8318    2.2767    1.6030 H       1  UNL1        0.0427
     31 H           1.4702    1.0674    2.7229 H       1  UNL1        0.0427
     32 H           2.0626    0.4622   -1.4098 H       1  UNL1        0.0427
     33 H           1.2028    1.9163   -0.8917 H       1  UNL1        0.0427
     34 H           3.4981    1.6299    1.8367 H       1  UNL1        0.0476
     35 H           3.1769    2.4431    0.3309 H       1  UNL1        0.0476
     36 H          -4.0699   -2.5511    0.3263 H       1  UNL1        0.0356
     37 H          -3.5488   -1.8971   -1.2436 H       1  UNL1        0.0356
     38 H          -4.3612   -0.3761    1.7352 H       1  UNL1        0.0636
     39 H          -2.6824    1.2444   -1.8948 H       1  UNL1        0.0636
     40 H           4.8756   -0.3428    2.0358 H       1  UNL1        0.0621
     41 H           4.1260    1.4897   -1.7974 H       1  UNL1        0.0621
     42 H          -2.5683   -4.5023   -0.0082 H       1  UNL1        0.0234
     43 H          -1.9665   -3.8014   -1.5175 H       1  UNL1        0.0234
     44 H          -3.6611   -4.3173   -1.3910 H       1  UNL1        0.0234
     45 H          -6.4956    0.7622    1.2438 H       1  UNL1        0.0618
     46 H          -4.8154    2.3862   -2.3624 H       1  UNL1        0.0618
     47 H           6.7341   -1.6315    1.0451 H       1  UNL1        0.0618
     48 H           5.9743    0.1840   -2.7748 H       1  UNL1        0.0618
     49 H          -6.7284    2.1478   -0.8009 H       1  UNL1        0.0618
     50 H           7.2872   -1.3743   -1.3596 H       1  UNL1        0.0618
@<TRIPOS>BOND
     1     1    11    2
     2     2     7    1
     3     2     8    1
     4     2     9    1
     5     3     4    1
     6     3    10    1
     7     3    11   am
     8     4     5    1
     9     4     6    1
    10     4    25    1
    11     5     7    1
    12     5    26    1
    13     5    27    1
    14     6     8    1
    15     6    28    1
    16     6    29    1
    17     7    30    1
    18     7    31    1
    19     8    32    1
    20     8    33    1
    21     9    12    1
    22     9    34    1
    23     9    35    1
    24    10    14   ar
    25    10    15   ar
    26    11    13    1
    27    12    16   ar
    28    12    17   ar
    29    13    18    1
    30    13    36    1
    31    13    37    1
    32    14    19   ar
    33    14    38    1
    34    15    20   ar
    35    15    39    1
    36    16    21   ar
    37    16    40    1
    38    17    22   ar
    39    17    41    1
    40    18    42    1
    41    18    43    1
    42    18    44    1
    43    19    23   ar
    44    19    45    1
    45    20    23   ar
    46    20    46    1
    47    21    24   ar
    48    21    47    1
    49    22    24   ar
    50    22    48    1
    51    23    49    1
    52    24    50    1
@<TRIPOS>MOLECULE
527020
 53 55 0 0 0
SMALL
GASTEIGER

@<TRIPOS>ATOM
      1 O          -3.1241    2.6626   -0.2646 O.2     1  UNL1       -0.2752
      2 N           2.0942    0.6011    1.0132 N.3     1  UNL1       -0.2980
      3 N          -2.0324    0.5847    0.0643 N.am    1  UNL1       -0.2683
      4 C          -0.7124    1.0908    0.3466 C.3     1  UNL1        0.0334
      5 C          -0.2652    0.6913    1.7525 C.3     1  UNL1       -0.0210
      6 C           0.2991    0.5984   -0.6889 C.3     1  UNL1       -0.0210
      7 C           1.1728    1.1357    2.0255 C.3     1  UNL1        0.0009
      8 C           1.7182    1.0471   -0.3356 C.3     1  UNL1        0.0009
      9 C           3.4704    0.9931    1.3165 C.3     1  UNL1        0.0240
     10 C          -2.2399   -0.8618    0.0721 C.ar    1  UNL1        0.0366
     11 C          -3.1463    1.4299   -0.2225 C.2     1  UNL1        0.2200
     12 C           4.4517    0.3928    0.3450 C.ar    1  UNL1       -0.0334
     13 C          -4.4683    0.6995   -0.4473 C.3     1  UNL1        0.0242
     14 C          -2.0606   -1.5316   -1.1014 C.ar    1  UNL1       -0.0403
     15 C          -2.5978   -1.4422    1.2524 C.ar    1  UNL1       -0.0403
     16 C          -5.6255    1.6527   -0.7503 C.3     1  UNL1       -0.0476
     17 C           5.0140   -0.8460    0.6197 C.ar    1  UNL1       -0.0573
     18 C           4.7797    1.0863   -0.8116 C.ar    1  UNL1       -0.0573
     19 C          -2.2582   -2.9123   -1.0941 C.ar    1  UNL1       -0.0600
     20 C          -2.7953   -2.8230    1.2596 C.ar    1  UNL1       -0.0600
     21 C          -6.9202    0.8960   -0.9998 C.3     1  UNL1       -0.0648
     22 C           5.9229   -1.4024   -0.2803 C.ar    1  UNL1       -0.0615
     23 C           5.6886    0.5298   -1.7116 C.ar    1  UNL1       -0.0615
     24 C          -2.6255   -3.5580    0.0863 C.ar    1  UNL1       -0.0616
     25 C           6.2601   -0.7147   -1.4459 C.ar    1  UNL1       -0.0617
     26 H          -0.7445    2.1868    0.2973 H       1  UNL1        0.0505
     27 H          -0.2929   -0.3948    1.8940 H       1  UNL1        0.0296
     28 H          -0.9358    1.1279    2.5026 H       1  UNL1        0.0296
     29 H           0.0304    0.9684   -1.6859 H       1  UNL1        0.0296
     30 H           0.3160   -0.4955   -0.7491 H       1  UNL1        0.0296
     31 H           1.2187    2.2323    2.0560 H       1  UNL1        0.0427
     32 H           1.4598    0.7707    3.0193 H       1  UNL1        0.0427
     33 H           2.3444    0.5915   -1.1067 H       1  UNL1        0.0427
     34 H           1.7950    2.1381   -0.4312 H       1  UNL1        0.0427
     35 H           3.7389    0.6613    2.3286 H       1  UNL1        0.0476
     36 H           3.5829    2.0865    1.3249 H       1  UNL1        0.0476
     37 H          -4.7212    0.1281    0.4517 H       1  UNL1        0.0358
     38 H          -4.3599    0.0136   -1.2936 H       1  UNL1        0.0358
     39 H          -1.7875   -1.0314   -2.0246 H       1  UNL1        0.0636
     40 H          -2.7435   -0.8726    2.1641 H       1  UNL1        0.0636
     41 H          -5.3888    2.2610   -1.6314 H       1  UNL1        0.0267
     42 H          -5.7676    2.3466    0.0868 H       1  UNL1        0.0267
     43 H           4.7569   -1.3914    1.5233 H       1  UNL1        0.0621
     44 H           4.3557    2.0635   -1.0251 H       1  UNL1        0.0621
     45 H          -2.1291   -3.4842   -2.0084 H       1  UNL1        0.0618
     46 H          -3.0844   -3.3253    2.1781 H       1  UNL1        0.0618
     47 H          -7.7336    1.5966   -1.2127 H       1  UNL1        0.0230
     48 H          -6.8213    0.2203   -1.8553 H       1  UNL1        0.0230
     49 H          -7.2029    0.3032   -0.1240 H       1  UNL1        0.0230
     50 H           6.3677   -2.3714   -0.0737 H       1  UNL1        0.0618
     51 H           5.9540    1.0668   -2.6175 H       1  UNL1        0.0618
     52 H          -2.7807   -4.6330    0.0917 H       1  UNL1        0.0618
     53 H           6.9683   -1.1476   -2.1463 H       1  UNL1        0.0618
@<TRIPOS>BOND
     1     1    11    2
     2     2     7    1
     3     2     8    1
     4     2     9    1
     5     3     4    1
     6     3    10    1
     7     3    11   am
     8     4     5    1
     9     4     6    1
    10     4    26    1
    11     5     7    1
    12     5    27    1
    13     5    28    1
    14     6     8    1
    15     6    29    1
    16     6    30    1
    17     7    31    1
    18     7    32    1
    19     8    33    1
    20     8    34    1
    21     9    12    1
    22     9    35    1
    23     9    36    1
    24    10    14   ar
    25    10    15   ar
    26    11    13    1
    27    12    17   ar
    28    12    18   ar
    29    13    16    1
    30    13    37    1
    31    13    38    1
    32    14    19   ar
    33    14    39    1
    34    15    20   ar
    35    15    40    1
    36    16    21    1
    37    16    41    1
    38    16    42    1
    39    17    22   ar
    40    17    43    1
    41    18    23   ar
    42    18    44    1
    43    19    24   ar
    44    19    45    1
    45    20    24   ar
    46    20    46    1
    47    21    47    1
    48    21    48    1
    49    21    49    1
    50    22    25   ar
    51    22    50    1
    52    23    25   ar
    53    23    51    1
    54    24    52    1
    55    25    53    1
@<TRIPOS>MOLECULE
13306764
 51 53 0 0 0
SMALL
GASTEIGER

@<TRIPOS>ATOM
      1 O          -3.8465   -2.5841    0.2097 O.2     1  UNL1       -0.2739
      2 N           1.1138   -0.2846   -0.4619 N.3     1  UNL1       -0.3019
      3 N          -3.0776   -0.3996    0.1282 N.am    1  UNL1       -0.2063
      4 N          -3.4037    0.9549    0.0471 N.ar    1  UNL1       -0.2710
      5 C          -1.6912   -0.7884    0.2004 C.3     1  UNL1        0.0499
      6 C          -0.8592    0.2717    0.9227 C.3     1  UNL1       -0.0195
      7 C          -1.1238   -1.0436   -1.1956 C.3     1  UNL1       -0.0195
      8 C           0.6279   -0.0868    0.9107 C.3     1  UNL1        0.0006
      9 C           0.3722   -1.3577   -1.1385 C.3     1  UNL1        0.0006
     10 C           2.5472   -0.5761   -0.4601 C.3     1  UNL1        0.0029
     11 C           3.3431    0.5925    0.1224 C.3     1  UNL1       -0.0149
     12 C          -4.0922   -1.3766    0.1392 C.2     1  UNL1        0.2336
     13 C           4.8251    0.3138    0.1095 C.ar    1  UNL1       -0.0462
     14 C          -5.5362   -0.8851    0.0596 C.3     1  UNL1        0.0229
     15 C          -3.6188    1.7290    1.1220 C.ar    1  UNL1        0.0254
     16 C          -3.5354    1.6159   -1.1131 C.ar    1  UNL1        0.0254
     17 C          -3.9126    2.9836    0.6354 C.ar    1  UNL1       -0.0424
     18 C          -3.8597    2.9121   -0.7786 C.ar    1  UNL1       -0.0424
     19 C          -6.5412   -2.0261    0.0647 C.3     1  UNL1       -0.0569
     20 C           5.4113   -0.3044    1.2037 C.ar    1  UNL1       -0.0585
     21 C           5.5773    0.6799   -0.9966 C.ar    1  UNL1       -0.0585
     22 C           6.7820   -0.5625    1.1918 C.ar    1  UNL1       -0.0615
     23 C           6.9481    0.4217   -1.0084 C.ar    1  UNL1       -0.0615
     24 C           7.5503   -0.1995    0.0857 C.ar    1  UNL1       -0.0617
     25 H          -1.6233   -1.7233    0.7724 H       1  UNL1        0.0521
     26 H          -1.1925    0.3760    1.9624 H       1  UNL1        0.0296
     27 H          -0.9498    1.2568    0.4482 H       1  UNL1        0.0296
     28 H          -1.2790   -0.1691   -1.8401 H       1  UNL1        0.0296
     29 H          -1.6538   -1.8764   -1.6737 H       1  UNL1        0.0296
     30 H           1.1250    0.7504    1.4070 H       1  UNL1        0.0427
     31 H           0.7980   -0.9828    1.5220 H       1  UNL1        0.0427
     32 H           0.5269   -2.3197   -0.6323 H       1  UNL1        0.0427
     33 H           0.7353   -1.4695   -2.1675 H       1  UNL1        0.0427
     34 H           2.7606   -1.4981    0.0979 H       1  UNL1        0.0430
     35 H           2.8846   -0.7474   -1.4909 H       1  UNL1        0.0430
     36 H           3.0796    0.8100    1.1622 H       1  UNL1        0.0326
     37 H           3.1373    1.5131   -0.4398 H       1  UNL1        0.0326
     38 H          -5.7377   -0.2342    0.9164 H       1  UNL1        0.0356
     39 H          -5.6659   -0.3080   -0.8615 H       1  UNL1        0.0356
     40 H          -3.5608    1.3597    2.1373 H       1  UNL1        0.0827
     41 H          -3.4025    1.1469   -2.0789 H       1  UNL1        0.0827
     42 H          -4.1417    3.8537    1.2344 H       1  UNL1        0.0633
     43 H          -4.0401    3.7165   -1.4777 H       1  UNL1        0.0633
     44 H          -6.4564   -2.6211    0.9800 H       1  UNL1        0.0234
     45 H          -6.3815   -2.6948   -0.7876 H       1  UNL1        0.0234
     46 H          -7.5615   -1.6346    0.0053 H       1  UNL1        0.0234
     47 H           4.8215   -0.5937    2.0689 H       1  UNL1        0.0620
     48 H           5.1171    1.1623   -1.8541 H       1  UNL1        0.0620
     49 H           7.2509   -1.0469    2.0433 H       1  UNL1        0.0618
     50 H           7.5465    0.7037   -1.8698 H       1  UNL1        0.0618
     51 H           8.6175   -0.4009    0.0762 H       1  UNL1        0.0618
@<TRIPOS>BOND
     1     1    12    2
     2     2     8    1
     3     2     9    1
     4     2    10    1
     5     3     4    1
     6     3     5    1
     7     3    12   am
     8     4    15   ar
     9     4    16   ar
    10     5     6    1
    11     5     7    1
    12     5    25    1
    13     6     8    1
    14     6    26    1
    15     6    27    1
    16     7     9    1
    17     7    28    1
    18     7    29    1
    19     8    30    1
    20     8    31    1
    21     9    32    1
    22     9    33    1
    23    10    11    1
    24    10    34    1
    25    10    35    1
    26    11    13    1
    27    11    36    1
    28    11    37    1
    29    12    14    1
    30    13    20   ar
    31    13    21   ar
    32    14    19    1
    33    14    38    1
    34    14    39    1
    35    15    17   ar
    36    15    40    1
    37    16    18   ar
    38    16    41    1
    39    17    18   ar
    40    17    42    1
    41    18    43    1
    42    19    44    1
    43    19    45    1
    44    19    46    1
    45    20    22   ar
    46    20    47    1
    47    21    23   ar
    48    21    48    1
    49    22    24   ar
    50    22    49    1
    51    23    24   ar
    52    23    50    1
    53    24    51    1
@<TRIPOS>MOLECULE
90274196
 47 48 0 0 0
SMALL
GASTEIGER

@<TRIPOS>ATOM
      1 O           1.2262   -0.6796    2.2745 O.3     1  UNL1       -0.3808
      2 O          -0.6501   -2.6092   -0.5482 O.2     1  UNL1       -0.2752
      3 N          -0.1513   -0.3384   -0.1368 N.am    1  UNL1       -0.2630
      4 N           3.7732    0.3321   -1.5149 N.3     1  UNL1       -0.3158
      5 C           1.2983   -0.4642   -0.1057 C.3     1  UNL1        0.0677
      6 C           1.7717   -1.1164   -1.4197 C.3     1  UNL1       -0.0163
      7 C           1.9274    0.9392    0.0137 C.3     1  UNL1       -0.0163
      8 C           3.2876   -1.0438   -1.6075 C.3     1  UNL1       -0.0021
      9 C           3.4378    0.9365   -0.2266 C.3     1  UNL1       -0.0021
     10 C           1.6753   -1.3335    1.1054 C.3     1  UNL1        0.0691
     11 C          -0.7015    1.0057   -0.0307 C.ar    1  UNL1        0.0370
     12 C          -1.0142   -1.4456   -0.3600 C.2     1  UNL1        0.2203
     13 C          -2.5074   -1.1295   -0.3130 C.3     1  UNL1        0.0243
     14 C          -1.0880    1.5048    1.2130 C.ar    1  UNL1       -0.0402
     15 C          -0.8422    1.7939   -1.1729 C.ar    1  UNL1       -0.0402
     16 C          -3.3796   -2.3612   -0.5604 C.3     1  UNL1       -0.0476
     17 C           1.5369   -1.4219    3.4497 C.3     1  UNL1        0.0365
     18 C          -1.6155    2.7922    1.3149 C.ar    1  UNL1       -0.0600
     19 C          -1.3695    3.0813   -1.0713 C.ar    1  UNL1       -0.0600
     20 C          -4.8591   -2.0226   -0.4760 C.3     1  UNL1       -0.0648
     21 C          -1.7561    3.5804    0.1727 C.ar    1  UNL1       -0.0616
     22 H           1.2898   -0.6201   -2.2740 H       1  UNL1        0.0299
     23 H           1.4842   -2.1714   -1.4780 H       1  UNL1        0.0299
     24 H           1.7394    1.4068    0.9876 H       1  UNL1        0.0299
     25 H           1.5565    1.6245   -0.7545 H       1  UNL1        0.0299
     26 H           3.5404   -1.4368   -2.5987 H       1  UNL1        0.0425
     27 H           3.8036   -1.6793   -0.8788 H       1  UNL1        0.0425
     28 H           3.9613    0.4182    0.5849 H       1  UNL1        0.0425
     29 H           3.8016    1.9704   -0.2211 H       1  UNL1        0.0425
     30 H           2.7598   -1.4731    1.1707 H       1  UNL1        0.0581
     31 H           1.2251   -2.3306    1.0489 H       1  UNL1        0.0581
     32 H           4.7852    0.3415   -1.6384 H       1  UNL1        0.1219
     33 H          -2.7396   -0.3795   -1.0764 H       1  UNL1        0.0358
     34 H          -2.7484   -0.7208    0.6742 H       1  UNL1        0.0358
     35 H          -0.9904    0.8996    2.1099 H       1  UNL1        0.0636
     36 H          -0.5505    1.4133   -2.1484 H       1  UNL1        0.0636
     37 H          -3.1471   -3.1394    0.1763 H       1  UNL1        0.0267
     38 H          -3.1596   -2.7823   -1.5487 H       1  UNL1        0.0267
     39 H           1.1657   -0.8654    4.3143 H       1  UNL1        0.0523
     40 H           2.6197   -1.5439    3.5500 H       1  UNL1        0.0523
     41 H           1.0460   -2.3995    3.4253 H       1  UNL1        0.0523
     42 H          -1.9179    3.1801    2.2831 H       1  UNL1        0.0618
     43 H          -1.4804    3.6944   -1.9608 H       1  UNL1        0.0618
     44 H          -5.1167   -1.6332    0.5141 H       1  UNL1        0.0230
     45 H          -5.4635   -2.9169   -0.6570 H       1  UNL1        0.0230
     46 H          -5.1326   -1.2708   -1.2232 H       1  UNL1        0.0230
     47 H          -2.1673    4.5825    0.2517 H       1  UNL1        0.0618
@<TRIPOS>BOND
     1     1    10    1
     2     1    17    1
     3     2    12    2
     4     3     5    1
     5     3    11    1
     6     3    12   am
     7     4     8    1
     8     4     9    1
     9     4    32    1
    10     5     6    1
    11     5     7    1
    12     5    10    1
    13     6     8    1
    14     6    22    1
    15     6    23    1
    16     7     9    1
    17     7    24    1
    18     7    25    1
    19     8    26    1
    20     8    27    1
    21     9    28    1
    22     9    29    1
    23    10    30    1
    24    10    31    1
    25    11    14   ar
    26    11    15   ar
    27    12    13    1
    28    13    16    1
    29    13    33    1
    30    13    34    1
    31    14    18   ar
    32    14    35    1
    33    15    19   ar
    34    15    36    1
    35    16    20    1
    36    16    37    1
    37    16    38    1
    38    17    39    1
    39    17    40    1
    40    17    41    1
    41    18    21   ar
    42    18    42    1
    43    19    21   ar
    44    19    43    1
    45    20    44    1
    46    20    45    1
    47    20    46    1
    48    21    47    1
@<TRIPOS>MOLECULE
137699892
 53 55 0 0 0
SMALL
GASTEIGER

@<TRIPOS>ATOM
      1 O          -2.6325   -2.8418   -0.2332 O.2     1  UNL1       -0.2756
      2 N           0.9312   -0.3267    0.3209 N.3     1  UNL1       -0.3019
      3 N          -3.2856   -0.5734    0.0251 N.am    1  UNL1       -0.2685
      4 C          -1.9703    0.0051    0.1424 C.3     1  UNL1        0.0334
      5 C          -1.1103   -0.3311   -1.0761 C.3     1  UNL1       -0.0210
      6 C          -1.2801   -0.4667    1.4219 C.3     1  UNL1       -0.0210
      7 C           0.3174    0.1921   -0.9093 C.3     1  UNL1        0.0006
      8 C           0.1537    0.0600    1.5063 C.3     1  UNL1        0.0006
      9 C           2.3121    0.1410    0.4402 C.3     1  UNL1        0.0029
     10 C           3.2575   -0.7249   -0.3930 C.3     1  UNL1       -0.0149
     11 C          -4.4241    0.3413    0.0006 C.ar    1  UNL1        0.0365
     12 C          -3.4999   -1.9681   -0.1551 C.2     1  UNL1        0.2169
     13 C           4.6883   -0.2669   -0.2615 C.ar    1  UNL1       -0.0461
     14 C          -4.7115    1.1272    1.1165 C.ar    1  UNL1       -0.0403
     15 C          -5.2248    0.4276   -1.1382 C.ar    1  UNL1       -0.0403
     16 C          -4.9467   -2.4024   -0.2100 C.3     1  UNL1        0.0127
     17 C           5.1997    0.6843   -1.1444 C.ar    1  UNL1       -0.0583
     18 C           5.5008   -0.7964    0.7410 C.ar    1  UNL1       -0.0583
     19 C          -5.7997    1.9994    1.0937 C.ar    1  UNL1       -0.0600
     20 C          -6.3131    1.2999   -1.1612 C.ar    1  UNL1       -0.0600
     21 C          -6.6005    2.0858   -0.0453 C.ar    1  UNL1       -0.0616
     22 C           6.5239    1.1059   -1.0247 C.ar    1  UNL1       -0.0586
     23 C           6.8250   -0.3748    0.8605 C.ar    1  UNL1       -0.0586
     24 C           7.3366    0.5765   -0.0222 C.ar    1  UNL1       -0.0504
     25 C           8.7527    1.0271    0.1050 C.3     1  UNL1       -0.0397
     26 H          -2.0624    1.0992    0.1899 H       1  UNL1        0.0505
     27 H          -1.5569    0.1074   -1.9774 H       1  UNL1        0.0296
     28 H          -1.0539   -1.4092   -1.2581 H       1  UNL1        0.0296
     29 H          -1.2549   -1.5617    1.4789 H       1  UNL1        0.0296
     30 H          -1.8438   -0.1287    2.2999 H       1  UNL1        0.0296
     31 H           0.8880   -0.1198   -1.7908 H       1  UNL1        0.0427
     32 H           0.3035    1.2903   -0.9067 H       1  UNL1        0.0427
     33 H           0.1405    1.1515    1.6254 H       1  UNL1        0.0427
     34 H           0.6126   -0.3611    2.4093 H       1  UNL1        0.0427
     35 H           2.4043    1.2033    0.1769 H       1  UNL1        0.0430
     36 H           2.6421    0.0632    1.4857 H       1  UNL1        0.0430
     37 H           2.9835   -0.7108   -1.4547 H       1  UNL1        0.0326
     38 H           3.1827   -1.7755   -0.0819 H       1  UNL1        0.0326
     39 H          -4.0998    1.0666    2.0125 H       1  UNL1        0.0636
     40 H          -4.9979   -0.1523   -2.0288 H       1  UNL1        0.0636
     41 H          -5.3470   -2.2809   -1.2185 H       1  UNL1        0.0323
     42 H          -5.5669   -1.8928    0.5308 H       1  UNL1        0.0323
     43 H          -4.9946   -3.4706    0.0312 H       1  UNL1        0.0323
     44 H           4.5756    1.1054   -1.9281 H       1  UNL1        0.0620
     45 H           5.1131   -1.5367    1.4357 H       1  UNL1        0.0620
     46 H          -6.0242    2.6108    1.9628 H       1  UNL1        0.0618
     47 H          -6.9322    1.3727   -2.0506 H       1  UNL1        0.0618
     48 H          -7.4469    2.7661   -0.0637 H       1  UNL1        0.0618
     49 H           6.9103    1.8490   -1.7172 H       1  UNL1        0.0620
     50 H           7.4477   -0.7932    1.6469 H       1  UNL1        0.0620
     51 H           9.1685    1.3031   -0.8701 H       1  UNL1        0.0278
     52 H           9.3863    0.2303    0.5092 H       1  UNL1        0.0278
     53 H           8.8125    1.8943    0.7702 H       1  UNL1        0.0278
@<TRIPOS>BOND
     1     1    12    2
     2     2     7    1
     3     2     8    1
     4     2     9    1
     5     3     4    1
     6     3    11    1
     7     3    12   am
     8     4     5    1
     9     4     6    1
    10     4    26    1
    11     5     7    1
    12     5    27    1
    13     5    28    1
    14     6     8    1
    15     6    29    1
    16     6    30    1
    17     7    31    1
    18     7    32    1
    19     8    33    1
    20     8    34    1
    21     9    10    1
    22     9    35    1
    23     9    36    1
    24    10    13    1
    25    10    37    1
    26    10    38    1
    27    11    14   ar
    28    11    15   ar
    29    12    16    1
    30    13    17   ar
    31    13    18   ar
    32    14    19   ar
    33    14    39    1
    34    15    20   ar
    35    15    40    1
    36    16    41    1
    37    16    42    1
    38    16    43    1
    39    17    22   ar
    40    17    44    1
    41    18    23   ar
    42    18    45    1
    43    19    21   ar
    44    19    46    1
    45    20    21   ar
    46    20    47    1
    47    21    48    1
    48    22    24   ar
    49    22    49    1
    50    23    24   ar
    51    23    50    1
    52    24    25    1
    53    25    51    1
    54    25    52    1
    55    25    53    1
@<TRIPOS>MOLECULE
137699971
 54 56 0 0 0
SMALL
GASTEIGER

@<TRIPOS>ATOM
      1 F          -7.1706    0.6641    0.7995 F       1  UNL1       -0.2054
      2 O          -3.6623   -1.9030   -1.2416 O.2     1  UNL1       -0.2727
      3 O          -2.1901   -3.8085   -0.3362 O.3     1  UNL1       -0.3738
      4 N           1.7129   -0.0090    0.2488 N.3     1  UNL1       -0.3019
      5 N          -2.4976   -0.1286   -0.1837 N.am    1  UNL1       -0.2663
      6 C          -1.1791    0.3969    0.0688 C.3     1  UNL1        0.0335
      7 C          -0.5271   -0.3146    1.2541 C.3     1  UNL1       -0.0210
      8 C          -0.2924    0.2782   -1.1710 C.3     1  UNL1       -0.0210
      9 C           0.9101    0.1641    1.4673 C.3     1  UNL1        0.0006
     10 C           1.1367    0.7384   -0.8776 C.3     1  UNL1        0.0006
     11 C           3.0957    0.4062    0.4842 C.3     1  UNL1        0.0029
     12 C           4.0518   -0.3056   -0.4734 C.3     1  UNL1       -0.0149
     13 C          -3.6395    0.7737   -0.0702 C.ar    1  UNL1        0.0393
     14 C          -2.7380   -1.4848   -0.5380 C.2     1  UNL1        0.2458
     15 C           5.4840    0.0970   -0.2266 C.ar    1  UNL1       -0.0462
     16 C          -1.7902   -2.5120    0.0537 C.3     1  UNL1        0.1238
     17 C          -4.8842    0.2776    0.3175 C.ar    1  UNL1       -0.0050
     18 C          -3.4857    2.1320   -0.3478 C.ar    1  UNL1       -0.0401
     19 C           6.0283    1.1885   -0.9034 C.ar    1  UNL1       -0.0585
     20 C           6.2642   -0.6222    0.6785 C.ar    1  UNL1       -0.0585
     21 C          -5.9751    1.1398    0.4276 C.ar    1  UNL1        0.1252
     22 C          -4.5767    2.9942   -0.2376 C.ar    1  UNL1       -0.0573
     23 C          -5.8213    2.4980    0.1501 C.ar    1  UNL1       -0.0263
     24 C           7.3532    1.5606   -0.6750 C.ar    1  UNL1       -0.0615
     25 C           7.5889   -0.2501    0.9070 C.ar    1  UNL1       -0.0615
     26 C           8.1335    0.8413    0.2301 C.ar    1  UNL1       -0.0617
     27 C          -1.3297   -4.8121    0.1951 C.3     1  UNL1        0.0371
     28 H          -1.2188    1.4513    0.3593 H       1  UNL1        0.0505
     29 H          -1.1123   -0.1230    2.1626 H       1  UNL1        0.0296
     30 H          -0.3730   -1.3788    1.2163 H       1  UNL1        0.0296
     31 H          -0.7084    0.8963   -1.9770 H       1  UNL1        0.0296
     32 H          -0.2626   -0.7419   -1.5672 H       1  UNL1        0.0296
     33 H           0.9049    1.2162    1.7825 H       1  UNL1        0.0427
     34 H           1.3455   -0.4152    2.2917 H       1  UNL1        0.0427
     35 H           1.7255    0.5859   -1.7885 H       1  UNL1        0.0427
     36 H           1.1357    1.8172   -0.6717 H       1  UNL1        0.0427
     37 H           3.2068    1.4973    0.4246 H       1  UNL1        0.0430
     38 H           3.3983    0.1310    1.5043 H       1  UNL1        0.0430
     39 H           3.8051   -0.0906   -1.5200 H       1  UNL1        0.0326
     40 H           3.9568   -1.3943   -0.3644 H       1  UNL1        0.0326
     41 H          -0.7835   -2.3758   -0.3396 H       1  UNL1        0.0657
     42 H          -1.8930   -2.4798    1.1419 H       1  UNL1        0.0657
     43 H          -5.0338   -0.7681    0.5700 H       1  UNL1        0.0665
     44 H          -2.5513    2.5565   -0.7014 H       1  UNL1        0.0636
     45 H           5.4297    1.7579   -1.6094 H       1  UNL1        0.0620
     46 H           5.8508   -1.4732    1.2132 H       1  UNL1        0.0620
     47 H          -4.4605    4.0499   -0.4649 H       1  UNL1        0.0619
     48 H          -6.6715    3.1686    0.2333 H       1  UNL1        0.0646
     49 H           7.7771    2.4107   -1.2015 H       1  UNL1        0.0618
     50 H           8.1965   -0.8097    1.6121 H       1  UNL1        0.0618
     51 H           9.1649    1.1311    0.4081 H       1  UNL1        0.0618
     52 H          -1.6952   -5.7876   -0.1367 H       1  UNL1        0.0524
     53 H          -1.3417   -4.7872    1.2890 H       1  UNL1        0.0524
     54 H          -0.3088   -4.6767   -0.1749 H       1  UNL1        0.0524
@<TRIPOS>BOND
     1     1    21    1
     2     2    14    2
     3     3    16    1
     4     3    27    1
     5     4     9    1
     6     4    10    1
     7     4    11    1
     8     5     6    1
     9     5    13    1
    10     5    14   am
    11     6     7    1
    12     6     8    1
    13     6    28    1
    14     7     9    1
    15     7    29    1
    16     7    30    1
    17     8    10    1
    18     8    31    1
    19     8    32    1
    20     9    33    1
    21     9    34    1
    22    10    35    1
    23    10    36    1
    24    11    12    1
    25    11    37    1
    26    11    38    1
    27    12    15    1
    28    12    39    1
    29    12    40    1
    30    13    17   ar
    31    13    18   ar
    32    14    16    1
    33    15    19   ar
    34    15    20   ar
    35    16    41    1
    36    16    42    1
    37    17    21   ar
    38    17    43    1
    39    18    22   ar
    40    18    44    1
    41    19    24   ar
    42    19    45    1
    43    20    25   ar
    44    20    46    1
    45    21    23   ar
    46    22    23   ar
    47    22    47    1
    48    23    48    1
    49    24    26   ar
    50    24    49    1
    51    25    26   ar
    52    25    50    1
    53    26    51    1
    54    27    52    1
    55    27    53    1
    56    27    54    1
@<TRIPOS>MOLECULE
137699980
 57 60 0 0 0
SMALL
GASTEIGER

@<TRIPOS>ATOM
      1 O          -1.9979    1.9691   -1.4170 O.2     1  UNL1       -0.2749
      2 N          -2.4019   -0.1103   -0.3557 N.am    1  UNL1       -0.2681
      3 N           1.8311   -0.1054   -0.4607 N.3     1  UNL1       -0.3019
      4 C          -3.9589    1.8411   -0.0569 C.3     1  UNL1        0.0361
      5 C          -1.0469   -0.5940   -0.2638 C.3     1  UNL1        0.0334
      6 C          -4.1688    3.3730   -0.1804 C.3     1  UNL1       -0.0419
      7 C          -3.9642    2.0569    1.4793 C.3     1  UNL1       -0.0419
      8 C          -4.7821    3.3386    1.2322 C.3     1  UNL1       -0.0517
      9 C          -0.2690    0.1507    0.8214 C.3     1  UNL1       -0.0210
     10 C          -0.3309   -0.4666   -1.6082 C.3     1  UNL1       -0.0210
     11 C          -2.6996    1.2464   -0.6932 C.2     1  UNL1        0.2231
     12 C           1.1967   -0.2862    0.8524 C.3     1  UNL1        0.0006
     13 C           1.1371   -0.8821   -1.4972 C.3     1  UNL1        0.0006
     14 C           3.2442   -0.4790   -0.4018 C.3     1  UNL1        0.0029
     15 C          -3.5011   -1.0323   -0.0969 C.ar    1  UNL1        0.0366
     16 C           4.0900    0.6638    0.1608 C.3     1  UNL1       -0.0149
     17 C          -3.6067   -1.6612    1.1436 C.ar    1  UNL1       -0.0403
     18 C          -4.4465   -1.2868   -1.0905 C.ar    1  UNL1       -0.0403
     19 C           5.5526    0.2997    0.2063 C.ar    1  UNL1       -0.0462
     20 C          -4.6575   -2.5445    1.3906 C.ar    1  UNL1       -0.0600
     21 C          -5.4975   -2.1701   -0.8436 C.ar    1  UNL1       -0.0600
     22 C          -5.6030   -2.7989    0.3971 C.ar    1  UNL1       -0.0616
     23 C           6.0846   -0.3105    1.3422 C.ar    1  UNL1       -0.0585
     24 C           6.3734    0.5731   -0.8877 C.ar    1  UNL1       -0.0585
     25 C           7.4377   -0.6472    1.3840 C.ar    1  UNL1       -0.0615
     26 C           7.7264    0.2364   -0.8460 C.ar    1  UNL1       -0.0615
     27 C           8.2585   -0.3736    0.2900 C.ar    1  UNL1       -0.0617
     28 H          -4.8678    1.3280   -0.4021 H       1  UNL1        0.0394
     29 H          -1.0666   -1.6603    0.0003 H       1  UNL1        0.0505
     30 H          -4.8445    3.6966   -0.9768 H       1  UNL1        0.0272
     31 H          -3.2466    3.9631   -0.2369 H       1  UNL1        0.0272
     32 H          -2.9734    2.2397    1.9117 H       1  UNL1        0.0272
     33 H          -4.4718    1.2883    2.0678 H       1  UNL1        0.0272
     34 H          -4.5428    4.1879    1.8766 H       1  UNL1        0.0266
     35 H          -5.8662    3.1775    1.2384 H       1  UNL1        0.0266
     36 H          -0.3114    1.2354    0.6580 H       1  UNL1        0.0296
     37 H          -0.7254   -0.0297    1.8023 H       1  UNL1        0.0296
     38 H          -0.3456    0.5537   -1.9995 H       1  UNL1        0.0296
     39 H          -0.8326   -1.0906   -2.3582 H       1  UNL1        0.0296
     40 H           1.7031    0.3152    1.6151 H       1  UNL1        0.0427
     41 H           1.2564   -1.3342    1.1754 H       1  UNL1        0.0427
     42 H           1.2021   -1.9580   -1.2873 H       1  UNL1        0.0427
     43 H           1.6092   -0.7119   -2.4728 H       1  UNL1        0.0427
     44 H           3.3947   -1.4069    0.1665 H       1  UNL1        0.0430
     45 H           3.6166   -0.6863   -1.4149 H       1  UNL1        0.0430
     46 H           3.7684    0.9406    1.1719 H       1  UNL1        0.0326
     47 H           3.9597    1.5678   -0.4492 H       1  UNL1        0.0326
     48 H          -2.8816   -1.4683    1.9296 H       1  UNL1        0.0636
     49 H          -4.3726   -0.8081   -2.0636 H       1  UNL1        0.0636
     50 H          -4.7406   -3.0330    2.3571 H       1  UNL1        0.0618
     51 H          -6.2329   -2.3692   -1.6176 H       1  UNL1        0.0618
     52 H          -6.4213   -3.4866    0.5895 H       1  UNL1        0.0618
     53 H           5.4546   -0.5306    2.2000 H       1  UNL1        0.0620
     54 H           5.9702    1.0464   -1.7790 H       1  UNL1        0.0620
     55 H           7.8520   -1.1227    2.2682 H       1  UNL1        0.0618
     56 H           8.3655    0.4489   -1.6980 H       1  UNL1        0.0618
     57 H           9.3119   -0.6359    0.3224 H       1  UNL1        0.0618
@<TRIPOS>BOND
     1     1    11    2
     2     2     5    1
     3     2    11   am
     4     2    15    1
     5     3    12    1
     6     3    13    1
     7     3    14    1
     8     4     6    1
     9     4     7    1
    10     4    11    1
    11     4    28    1
    12     5     9    1
    13     5    10    1
    14     5    29    1
    15     6     8    1
    16     6    30    1
    17     6    31    1
    18     7     8    1
    19     7    32    1
    20     7    33    1
    21     8    34    1
    22     8    35    1
    23     9    12    1
    24     9    36    1
    25     9    37    1
    26    10    13    1
    27    10    38    1
    28    10    39    1
    29    12    40    1
    30    12    41    1
    31    13    42    1
    32    13    43    1
    33    14    16    1
    34    14    44    1
    35    14    45    1
    36    15    17   ar
    37    15    18   ar
    38    16    19    1
    39    16    46    1
    40    16    47    1
    41    17    20   ar
    42    17    48    1
    43    18    21   ar
    44    18    49    1
    45    19    23   ar
    46    19    24   ar
    47    20    22   ar
    48    20    50    1
    49    21    22   ar
    50    21    51    1
    51    22    52    1
    52    23    25   ar
    53    23    53    1
    54    24    26   ar
    55    24    54    1
    56    25    27   ar
    57    25    55    1
    58    26    27   ar
    59    26    56    1
    60    27    57    1
@<TRIPOS>MOLECULE
137700020
 58 61 0 0 0
SMALL
GASTEIGER

@<TRIPOS>ATOM
      1 O          -3.5913    2.9652    1.6453 O.3     1  UNL1       -0.3790
      2 O          -1.9707    1.8475   -1.4569 O.2     1  UNL1       -0.2749
      3 N           1.9213   -0.2106   -0.4935 N.3     1  UNL1       -0.3019
      4 N          -2.3120   -0.2601   -0.4175 N.am    1  UNL1       -0.2680
      5 C          -0.9522   -0.7195   -0.2826 C.3     1  UNL1        0.0334
      6 C          -0.2274   -0.6779   -1.6276 C.3     1  UNL1       -0.0210
      7 C          -0.1914    0.1090    0.7530 C.3     1  UNL1       -0.0210
      8 C           1.2445   -1.0666   -1.4776 C.3     1  UNL1        0.0006
      9 C           1.2790   -0.3066    0.8247 C.3     1  UNL1        0.0006
     10 C          -3.9621    1.5723   -0.2495 C.3     1  UNL1        0.0615
     11 C           3.3382   -0.5618   -0.3989 C.3     1  UNL1        0.0029
     12 C          -2.6412    1.0805   -0.7613 C.2     1  UNL1        0.2254
     13 C          -4.1842    3.0117   -0.6466 C.3     1  UNL1       -0.0162
     14 C          -3.9763    1.6346    1.2654 C.3     1  UNL1        0.0588
     15 C          -3.3776   -1.2048   -0.0926 C.ar    1  UNL1        0.0366
     16 C           4.1661    0.6280    0.0878 C.3     1  UNL1       -0.0149
     17 C          -3.5023    3.7764    0.4686 C.3     1  UNL1        0.0485
     18 C          -4.3620   -1.4972   -1.0365 C.ar    1  UNL1       -0.0403
     19 C          -3.4109   -1.8142    1.1616 C.ar    1  UNL1       -0.0403
     20 C           5.6326    0.2859    0.1688 C.ar    1  UNL1       -0.0462
     21 C          -5.3798   -2.3992   -0.7263 C.ar    1  UNL1       -0.0600
     22 C          -4.4286   -2.7161    1.4719 C.ar    1  UNL1       -0.0600
     23 C           6.1629   -0.2365    1.3484 C.ar    1  UNL1       -0.0585
     24 C           6.4585    0.4920   -0.9360 C.ar    1  UNL1       -0.0585
     25 C          -5.4131   -3.0086    0.5280 C.ar    1  UNL1       -0.0616
     26 C           7.5196   -0.5527    1.4231 C.ar    1  UNL1       -0.0615
     27 C           7.8149    0.1757   -0.8614 C.ar    1  UNL1       -0.0615
     28 C           8.3455   -0.3465    0.3182 C.ar    1  UNL1       -0.0617
     29 H          -0.9522   -1.7662    0.0513 H       1  UNL1        0.0505
     30 H          -0.2691    0.3171   -2.0826 H       1  UNL1        0.0296
     31 H          -0.7156   -1.3593   -2.3355 H       1  UNL1        0.0296
     32 H          -0.6524   -0.0076    1.7413 H       1  UNL1        0.0296
     33 H          -0.2427    1.1792    0.5149 H       1  UNL1        0.0296
     34 H           1.3209   -2.1243   -1.1927 H       1  UNL1        0.0427
     35 H           1.7216   -0.9585   -2.4596 H       1  UNL1        0.0427
     36 H           1.7724    0.3529    1.5467 H       1  UNL1        0.0427
     37 H           1.3485   -1.3285    1.2209 H       1  UNL1        0.0427
     38 H          -4.7742    0.9643   -0.6494 H       1  UNL1        0.0418
     39 H           3.7208   -0.8350   -1.3923 H       1  UNL1        0.0430
     40 H           3.4952   -1.4456    0.2342 H       1  UNL1        0.0430
     41 H          -3.8376    3.3074   -1.6408 H       1  UNL1        0.0295
     42 H          -5.2606    3.2253   -0.6087 H       1  UNL1        0.0295
     43 H          -4.9886    1.4698    1.6503 H       1  UNL1        0.0567
     44 H          -3.3019    0.9430    1.7734 H       1  UNL1        0.0567
     45 H           3.8336    0.9710    1.0748 H       1  UNL1        0.0326
     46 H           4.0299    1.4853   -0.5850 H       1  UNL1        0.0326
     47 H          -2.4414    3.9417    0.2539 H       1  UNL1        0.0560
     48 H          -3.9707    4.7468    0.6564 H       1  UNL1        0.0560
     49 H          -4.3414   -1.0404   -2.0227 H       1  UNL1        0.0636
     50 H          -2.6568   -1.5940    1.9122 H       1  UNL1        0.0636
     51 H          -6.1447   -2.6291   -1.4622 H       1  UNL1        0.0618
     52 H          -4.4556   -3.1895    2.4490 H       1  UNL1        0.0618
     53 H           5.5290   -0.4035    2.2152 H       1  UNL1        0.0620
     54 H           6.0566    0.8966   -1.8611 H       1  UNL1        0.0620
     55 H          -6.2055   -3.7110    0.7696 H       1  UNL1        0.0618
     56 H           7.9326   -0.9600    2.3413 H       1  UNL1        0.0618
     57 H           8.4581    0.3356   -1.7219 H       1  UNL1        0.0618
     58 H           9.4016   -0.5929    0.3762 H       1  UNL1        0.0618
@<TRIPOS>BOND
     1     1    14    1
     2     1    17    1
     3     2    12    2
     4     3     8    1
     5     3     9    1
     6     3    11    1
     7     4     5    1
     8     4    12   am
     9     4    15    1
    10     5     6    1
    11     5     7    1
    12     5    29    1
    13     6     8    1
    14     6    30    1
    15     6    31    1
    16     7     9    1
    17     7    32    1
    18     7    33    1
    19     8    34    1
    20     8    35    1
    21     9    36    1
    22     9    37    1
    23    10    12    1
    24    10    13    1
    25    10    14    1
    26    10    38    1
    27    11    16    1
    28    11    39    1
    29    11    40    1
    30    13    17    1
    31    13    41    1
    32    13    42    1
    33    14    43    1
    34    14    44    1
    35    15    18   ar
    36    15    19   ar
    37    16    20    1
    38    16    45    1
    39    16    46    1
    40    17    47    1
    41    17    48    1
    42    18    21   ar
    43    18    49    1
    44    19    22   ar
    45    19    50    1
    46    20    23   ar
    47    20    24   ar
    48    21    25   ar
    49    21    51    1
    50    22    25   ar
    51    22    52    1
    52    23    26   ar
    53    23    53    1
    54    24    27   ar
    55    24    54    1
    56    25    55    1
    57    26    28   ar
    58    26    56    1
    59    27    28   ar
    60    27    57    1
    61    28    58    1
@<TRIPOS>MOLECULE
137700041
 54 57 0 0 0
SMALL
GASTEIGER

@<TRIPOS>ATOM
      1 F          -6.1116   -3.5073   -0.1911 F       1  UNL1       -0.2055
      2 O          -1.3248    2.4277    0.1658 O.2     1  UNL1       -0.2695
      3 O          -5.5110    2.9016   -0.1568 O.2     1  UNL1       -0.4703
      4 N           2.3714    0.1149   -0.3431 N.3     1  UNL1       -0.3019
      5 N          -1.8535    0.1153   -0.0606 N.am    1  UNL1       -0.2642
      6 C          -0.5084   -0.3832   -0.2045 C.3     1  UNL1        0.0337
      7 C           0.1594    0.2030   -1.4481 C.3     1  UNL1       -0.0210
      8 C           0.3280   -0.0767    1.0381 C.3     1  UNL1       -0.0210
      9 C           1.6199   -0.2394   -1.5551 C.3     1  UNL1        0.0006
     10 C           1.7826   -0.5109    0.8489 C.3     1  UNL1        0.0006
     11 C           3.7760   -0.2694   -0.4817 C.3     1  UNL1        0.0029
     12 C           4.6704    0.5933    0.4093 C.3     1  UNL1       -0.0149
     13 C          -2.9674   -0.8325   -0.0950 C.ar    1  UNL1        0.0370
     14 C          -2.1326    1.5012    0.1138 C.2     1  UNL1        0.2541
     15 C           6.1242    0.2220    0.2594 C.ar    1  UNL1       -0.0462
     16 C          -3.9556   -0.7122   -1.0722 C.ar    1  UNL1       -0.0375
     17 C          -3.0415   -1.8560    0.8496 C.ar    1  UNL1       -0.0375
     18 C          -3.5469    1.8934    0.2646 C.ar    1  UNL1        0.0748
     19 C           6.6834   -0.7548    1.0834 C.ar    1  UNL1       -0.0585
     20 C           6.9098    0.8554   -0.7034 C.ar    1  UNL1       -0.0585
     21 C          -5.0181   -1.6156   -1.1045 C.ar    1  UNL1       -0.0247
     22 C          -4.1038   -2.7593    0.8174 C.ar    1  UNL1       -0.0247
     23 C          -4.4745    1.4944    1.2563 C.ar    1  UNL1       -0.0117
     24 C          -4.2259    2.7492   -0.5713 C.ar    1  UNL1        0.1038
     25 C          -5.0921   -2.6391   -0.1596 C.ar    1  UNL1        0.1235
     26 C           8.0283   -1.0979    0.9446 C.ar    1  UNL1       -0.0615
     27 C           8.2546    0.5123   -0.8422 C.ar    1  UNL1       -0.0615
     28 C          -5.6541    2.1349    0.9559 C.ar    1  UNL1        0.0924
     29 C           8.8139   -0.4644   -0.0181 C.ar    1  UNL1       -0.0617
     30 H          -0.5449   -1.4738   -0.3319 H       1  UNL1        0.0505
     31 H          -0.3847   -0.1138   -2.3466 H       1  UNL1        0.0296
     32 H           0.1314    1.2985   -1.4456 H       1  UNL1        0.0296
     33 H           0.3169    0.9919    1.2808 H       1  UNL1        0.0296
     34 H          -0.0950   -0.5911    1.9096 H       1  UNL1        0.0296
     35 H           1.6663   -1.3207   -1.7406 H       1  UNL1        0.0427
     36 H           2.0584    0.2601   -2.4278 H       1  UNL1        0.0427
     37 H           2.3323   -0.2230    1.7516 H       1  UNL1        0.0427
     38 H           1.8282   -1.6060    0.7791 H       1  UNL1        0.0427
     39 H           3.9247   -1.3395   -0.2834 H       1  UNL1        0.0430
     40 H           4.1048   -0.1098   -1.5182 H       1  UNL1        0.0430
     41 H           4.3941    0.4989    1.4663 H       1  UNL1        0.0326
     42 H           4.5396    1.6555    0.1628 H       1  UNL1        0.0326
     43 H          -3.8973    0.0528   -1.8417 H       1  UNL1        0.0637
     44 H          -2.2826   -1.9587    1.6204 H       1  UNL1        0.0637
     45 H           6.0809   -1.2569    1.8357 H       1  UNL1        0.0620
     46 H           6.4851    1.6166   -1.3525 H       1  UNL1        0.0620
     47 H          -5.7832   -1.5274   -1.8701 H       1  UNL1        0.0647
     48 H          -4.1625   -3.5555    1.5536 H       1  UNL1        0.0647
     49 H          -4.3099    0.8335    2.0954 H       1  UNL1        0.0656
     50 H          -3.9543    3.3032   -1.4583 H       1  UNL1        0.1037
     51 H           8.4637   -1.8588    1.5858 H       1  UNL1        0.0618
     52 H           8.8663    1.0051   -1.5922 H       1  UNL1        0.0618
     53 H          -6.6330    2.1512    1.4121 H       1  UNL1        0.1029
     54 H           9.8609   -0.7316   -0.1264 H       1  UNL1        0.0618
@<TRIPOS>BOND
     1     1    25    1
     2     2    14    2
     3     3    24   ar
     4     3    28   ar
     5     4     9    1
     6     4    10    1
     7     4    11    1
     8     5     6    1
     9     5    13    1
    10     5    14   am
    11     6     7    1
    12     6     8    1
    13     6    30    1
    14     7     9    1
    15     7    31    1
    16     7    32    1
    17     8    10    1
    18     8    33    1
    19     8    34    1
    20     9    35    1
    21     9    36    1
    22    10    37    1
    23    10    38    1
    24    11    12    1
    25    11    39    1
    26    11    40    1
    27    12    15    1
    28    12    41    1
    29    12    42    1
    30    13    16   ar
    31    13    17   ar
    32    14    18    1
    33    15    19   ar
    34    15    20   ar
    35    16    21   ar
    36    16    43    1
    37    17    22   ar
    38    17    44    1
    39    18    23   ar
    40    18    24   ar
    41    19    26   ar
    42    19    45    1
    43    20    27   ar
    44    20    46    1
    45    21    25   ar
    46    21    47    1
    47    22    25   ar
    48    22    48    1
    49    23    28   ar
    50    23    49    1
    51    24    50    1
    52    26    29   ar
    53    26    51    1
    54    27    29   ar
    55    27    52    1
    56    28    53    1
    57    29    54    1
@<TRIPOS>MOLECULE
156346345
 51 53 0 0 0
SMALL
GASTEIGER

@<TRIPOS>ATOM
      1 N           1.1843    0.4354    0.1650 N.3     1  UNL1       -0.3019
      2 N          -3.0039    0.5618   -0.3402 N.pl3   1  UNL1       -0.3270
      3 C          -1.7121    0.0604    0.0726 C.3     1  UNL1        0.0258
      4 C          -0.8261   -0.1564   -1.1531 C.3     1  UNL1       -0.0215
      5 C          -1.0510    1.0454    1.0363 C.3     1  UNL1       -0.0215
      6 C           0.5916   -0.5602   -0.7389 C.3     1  UNL1        0.0006
      7 C           0.3736    0.6015    1.3796 C.3     1  UNL1        0.0006
      8 C           2.5548    0.0598    0.5120 C.3     1  UNL1        0.0029
      9 C          -3.0603    1.8293   -1.0688 C.3     1  UNL1        0.0097
     10 C          -4.1805   -0.1512   -0.0770 C.ar    1  UNL1        0.0299
     11 C           3.5060    0.4149   -0.6305 C.3     1  UNL1       -0.0149
     12 C          -3.8978    2.8305   -0.2972 C.3     1  UNL1       -0.0494
     13 C           4.9274    0.0295   -0.3070 C.ar    1  UNL1       -0.0462
     14 C          -4.5420   -0.4393    1.2392 C.ar    1  UNL1       -0.0407
     15 C          -4.9911   -0.5728   -1.1309 C.ar    1  UNL1       -0.0407
     16 C          -5.7138   -1.1489    1.5012 C.ar    1  UNL1       -0.0600
     17 C          -6.1630   -1.2824   -0.8688 C.ar    1  UNL1       -0.0600
     18 C           5.7680    0.9402    0.3332 C.ar    1  UNL1       -0.0585
     19 C           5.4022   -1.2369   -0.6481 C.ar    1  UNL1       -0.0585
     20 C          -6.5243   -1.5705    0.4472 C.ar    1  UNL1       -0.0616
     21 C           7.0831    0.5845    0.6322 C.ar    1  UNL1       -0.0615
     22 C           6.7173   -1.5927   -0.3491 C.ar    1  UNL1       -0.0615
     23 C           7.5577   -0.6820    0.2911 C.ar    1  UNL1       -0.0617
     24 H          -1.8179   -0.9056    0.5861 H       1  UNL1        0.0500
     25 H          -0.7538    0.7373   -1.7828 H       1  UNL1        0.0295
     26 H          -1.2572   -0.9413   -1.7875 H       1  UNL1        0.0295
     27 H          -1.0014    2.0591    0.6222 H       1  UNL1        0.0295
     28 H          -1.6403    1.1207    1.9584 H       1  UNL1        0.0295
     29 H           0.5629   -1.5503   -0.2644 H       1  UNL1        0.0427
     30 H           1.1792   -0.6618   -1.6570 H       1  UNL1        0.0427
     31 H           0.8184    1.3691    2.0247 H       1  UNL1        0.0427
     32 H           0.3412   -0.3315    1.9577 H       1  UNL1        0.0427
     33 H           2.8835    0.6206    1.3979 H       1  UNL1        0.0430
     34 H           2.6274   -1.0026    0.7810 H       1  UNL1        0.0430
     35 H          -3.4870    1.6765   -2.0669 H       1  UNL1        0.0461
     36 H          -2.0734    2.2727   -1.2315 H       1  UNL1        0.0461
     37 H           3.2246   -0.0799   -1.5670 H       1  UNL1        0.0326
     38 H           3.4603    1.4920   -0.8407 H       1  UNL1        0.0326
     39 H          -3.5139    2.9740    0.7183 H       1  UNL1        0.0245
     40 H          -4.9443    2.5179   -0.2212 H       1  UNL1        0.0245
     41 H          -3.8830    3.8013   -0.8035 H       1  UNL1        0.0245
     42 H          -3.9247   -0.1134    2.0722 H       1  UNL1        0.0636
     43 H          -4.7211   -0.3666   -2.1632 H       1  UNL1        0.0636
     44 H          -5.9959   -1.3722    2.5259 H       1  UNL1        0.0618
     45 H          -6.7931   -1.6127   -1.6895 H       1  UNL1        0.0618
     46 H           5.4092    1.9293    0.6055 H       1  UNL1        0.0620
     47 H           4.7563   -1.9559   -1.1452 H       1  UNL1        0.0620
     48 H          -7.4367   -2.1232    0.6513 H       1  UNL1        0.0618
     49 H           7.7375    1.2934    1.1311 H       1  UNL1        0.0618
     50 H           7.0869   -2.5789   -0.6141 H       1  UNL1        0.0618
     51 H           8.5817   -0.9590    0.5242 H       1  UNL1        0.0618
@<TRIPOS>BOND
     1     1     6    1
     2     1     7    1
     3     1     8    1
     4     2     3    1
     5     2     9    1
     6     2    10    1
     7     3     4    1
     8     3     5    1
     9     3    24    1
    10     4     6    1
    11     4    25    1
    12     4    26    1
    13     5     7    1
    14     5    27    1
    15     5    28    1
    16     6    29    1
    17     6    30    1
    18     7    31    1
    19     7    32    1
    20     8    11    1
    21     8    33    1
    22     8    34    1
    23     9    12    1
    24     9    35    1
    25     9    36    1
    26    10    14   ar
    27    10    15   ar
    28    11    13    1
    29    11    37    1
    30    11    38    1
    31    12    39    1
    32    12    40    1
    33    12    41    1
    34    13    18   ar
    35    13    19   ar
    36    14    16   ar
    37    14    42    1
    38    15    17   ar
    39    15    43    1
    40    16    20   ar
    41    16    44    1
    42    17    20   ar
    43    17    45    1
    44    18    21   ar
    45    18    46    1
    46    19    22   ar
    47    19    47    1
    48    20    48    1
    49    21    23   ar
    50    21    49    1
    51    22    23   ar
    52    22    50    1
    53    23    51    1
@<TRIPOS>MOLECULE
165361467
 64 66 0 0 0
SMALL
GASTEIGER

@<TRIPOS>ATOM
      1 O          -3.1281   -2.2860   -1.3291 O.2     1  UNL1       -0.2753
      2 O           4.5344   -2.4089    0.6237 O.3     1  UNL1       -0.4948
      3 O           6.6974    2.4662   -0.7720 O.3     1  UNL1       -0.4951
      4 N           0.4971   -0.3859    0.3064 N.3     1  UNL1       -0.2992
      5 N          -3.7115   -0.3068   -0.1601 N.am    1  UNL1       -0.2683
      6 C          -2.3831    0.1107    0.2127 C.3     1  UNL1        0.0334
      7 C          -1.4896    0.2659   -1.0182 C.3     1  UNL1       -0.0210
      8 C          -1.7593   -0.8765    1.1989 C.3     1  UNL1       -0.0210
      9 C          -0.0547    0.6163   -0.6157 C.3     1  UNL1        0.0009
     10 C          -0.3149   -0.4890    1.5266 C.3     1  UNL1        0.0009
     11 C           1.8844   -0.0648    0.6405 C.3     1  UNL1        0.0117
     12 C           2.7838   -0.4630   -0.5430 C.3     1  UNL1       -0.0087
     13 C           1.9734    1.4257    0.9684 C.3     1  UNL1       -0.0492
     14 C          -4.8180    0.5898    0.1706 C.ar    1  UNL1        0.0366
     15 C          -3.9748   -1.4913   -0.9131 C.2     1  UNL1        0.2198
     16 C           4.2527   -0.2139   -0.2969 C.ar    1  UNL1       -0.0008
     17 C          -5.4526   -1.7797   -1.1614 C.3     1  UNL1        0.0217
     18 C          -5.1252    0.8556    1.5049 C.ar    1  UNL1       -0.0403
     19 C          -5.5666    1.1792   -0.8482 C.ar    1  UNL1       -0.0403
     20 C           5.0567   -1.1999    0.2749 C.ar    1  UNL1        0.1235
     21 C           4.8038    1.0183   -0.6485 C.ar    1  UNL1       -0.0133
     22 C          -5.7528   -3.2671   -1.2710 C.3     1  UNL1       -0.0570
     23 C           6.1590    1.2644   -0.4284 C.ar    1  UNL1        0.1206
     24 C          -6.1811    1.7107    1.8206 C.ar    1  UNL1       -0.0600
     25 C          -6.6225    2.0343   -0.5325 C.ar    1  UNL1       -0.0600
     26 C           6.4119   -0.9537    0.4950 C.ar    1  UNL1       -0.0162
     27 C           6.9630    0.2784    0.1433 C.ar    1  UNL1       -0.0165
     28 C          -6.9297    2.3000    0.8019 C.ar    1  UNL1       -0.0616
     29 C           5.4280   -3.3582    1.2020 C.3     1  UNL1        0.0788
     30 C           5.8188    3.4294   -1.3522 C.3     1  UNL1        0.0788
     31 H          -2.4417    1.0914    0.7052 H       1  UNL1        0.0505
     32 H          -1.8903    1.0514   -1.6715 H       1  UNL1        0.0296
     33 H          -1.4556   -0.6457   -1.6234 H       1  UNL1        0.0296
     34 H          -1.7670   -1.8970    0.7967 H       1  UNL1        0.0296
     35 H          -2.3473   -0.9087    2.1242 H       1  UNL1        0.0296
     36 H          -0.1109    1.6215   -0.1818 H       1  UNL1        0.0427
     37 H           0.5260    0.6851   -1.5407 H       1  UNL1        0.0427
     38 H          -0.3315    0.4425    2.1032 H       1  UNL1        0.0427
     39 H           0.0982   -1.2657    2.1821 H       1  UNL1        0.0427
     40 H           2.2055   -0.6443    1.5164 H       1  UNL1        0.0463
     41 H           2.6315   -1.5240   -0.7839 H       1  UNL1        0.0329
     42 H           2.5121    0.0695   -1.4624 H       1  UNL1        0.0329
     43 H           1.9574    2.0714    0.0831 H       1  UNL1        0.0245
     44 H           1.2183    1.7770    1.6776 H       1  UNL1        0.0245
     45 H           2.9307    1.6262    1.4660 H       1  UNL1        0.0245
     46 H          -6.0806   -1.4181   -0.3439 H       1  UNL1        0.0356
     47 H          -5.7504   -1.2916   -2.0947 H       1  UNL1        0.0356
     48 H          -4.5540    0.3996    2.3089 H       1  UNL1        0.0636
     49 H          -5.3238    1.0077   -1.8935 H       1  UNL1        0.0636
     50 H           4.1384    1.7480   -1.0971 H       1  UNL1        0.0658
     51 H          -5.4382   -3.7970   -0.3659 H       1  UNL1        0.0234
     52 H          -6.8256   -3.4314   -1.4123 H       1  UNL1        0.0234
     53 H          -5.2265   -3.7140   -2.1209 H       1  UNL1        0.0234
     54 H          -6.4209    1.9170    2.8596 H       1  UNL1        0.0618
     55 H          -7.2012    2.4985   -1.3257 H       1  UNL1        0.0618
     56 H           7.0972   -1.6705    0.9340 H       1  UNL1        0.0655
     57 H           8.0194    0.4656    0.3166 H       1  UNL1        0.0655
     58 H          -7.7510    2.9668    1.0477 H       1  UNL1        0.0618
     59 H           4.8445   -4.2596    1.4171 H       1  UNL1        0.0660
     60 H           6.2164   -3.6507    0.5002 H       1  UNL1        0.0660
     61 H           5.8294   -3.0048    2.1580 H       1  UNL1        0.0660
     62 H           6.4135    4.3250   -1.5598 H       1  UNL1        0.0660
     63 H           5.4184    3.0829   -2.3110 H       1  UNL1        0.0660
     64 H           5.0286    3.7259   -0.6540 H       1  UNL1        0.0660
@<TRIPOS>BOND
     1     1    15    2
     2     2    20    1
     3     2    29    1
     4     3    23    1
     5     3    30    1
     6     4     9    1
     7     4    10    1
     8     4    11    1
     9     5     6    1
    10     5    14    1
    11     5    15   am
    12     6     7    1
    13     6     8    1
    14     6    31    1
    15     7     9    1
    16     7    32    1
    17     7    33    1
    18     8    10    1
    19     8    34    1
    20     8    35    1
    21     9    36    1
    22     9    37    1
    23    10    38    1
    24    10    39    1
    25    11    12    1
    26    11    13    1
    27    11    40    1
    28    12    16    1
    29    12    41    1
    30    12    42    1
    31    13    43    1
    32    13    44    1
    33    13    45    1
    34    14    18   ar
    35    14    19   ar
    36    15    17    1
    37    16    20   ar
    38    16    21   ar
    39    17    22    1
    40    17    46    1
    41    17    47    1
    42    18    24   ar
    43    18    48    1
    44    19    25   ar
    45    19    49    1
    46    20    26   ar
    47    21    23   ar
    48    21    50    1
    49    22    51    1
    50    22    52    1
    51    22    53    1
    52    23    27   ar
    53    24    28   ar
    54    24    54    1
    55    25    28   ar
    56    25    55    1
    57    26    27   ar
    58    26    56    1
    59    27    57    1
    60    28    58    1
    61    29    59    1
    62    29    60    1
    63    29    61    1
    64    30    62    1
    65    30    63    1
    66    30    64    1
@<TRIPOS>MOLECULE
165361531
 47 49 0 0 0
SMALL
GASTEIGER

@<TRIPOS>ATOM
      1 O           0.5867    2.3386    0.0541 O.2     1  UNL1       -0.2696
      2 N           4.6237    0.5789   -0.0242 N.3     1  UNL1       -0.3052
      3 N           0.4343   -0.0359   -0.1084 N.am    1  UNL1       -0.2641
      4 C           1.8456   -0.3296   -0.1116 C.3     1  UNL1        0.0337
      5 C           2.5314    0.3086   -1.3193 C.3     1  UNL1       -0.0210
      6 C           2.5082    0.1406    1.1836 C.3     1  UNL1       -0.0210
      7 C           4.0444    0.0790   -1.2784 C.3     1  UNL1        0.0003
      8 C           4.0218   -0.0848    1.1405 C.3     1  UNL1        0.0003
      9 C          -0.5192   -1.1438   -0.1946 C.ar    1  UNL1        0.0398
     10 C           6.0752    0.3975   -0.0227 C.3     1  UNL1       -0.0128
     11 C          -0.0642    1.2974   -0.0241 C.2     1  UNL1        0.2511
     12 C          -0.9991   -1.7661    0.9578 C.ar    1  UNL1       -0.0290
     13 C          -0.9473   -1.5756   -1.4500 C.ar    1  UNL1       -0.0400
     14 C          -1.5294    1.4713   -0.0133 C.ar    1  UNL1        0.0372
     15 C          -1.9069   -2.8200    0.8550 C.ar    1  UNL1       -0.0571
     16 C          -0.5585   -1.3242    2.3157 C.3     1  UNL1       -0.0379
     17 C          -1.8551   -2.6295   -1.5530 C.ar    1  UNL1       -0.0600
     18 C          -2.3350   -3.2517   -0.4005 C.ar    1  UNL1       -0.0614
     19 C          -2.2223    1.4772    1.1972 C.ar    1  UNL1       -0.0496
     20 C          -2.2214    1.6309   -1.2138 C.ar    1  UNL1       -0.0496
     21 C          -3.6073    1.6427    1.2072 C.ar    1  UNL1       -0.0610
     22 C          -3.6064    1.7964   -1.2038 C.ar    1  UNL1       -0.0610
     23 C          -4.2993    1.8022    0.0067 C.ar    1  UNL1       -0.0617
     24 H           1.9734   -1.4188   -0.1832 H       1  UNL1        0.0505
     25 H           2.1235   -0.1129   -2.2464 H       1  UNL1        0.0296
     26 H           2.3474    1.3879   -1.3674 H       1  UNL1        0.0296
     27 H           2.1002   -0.4035    2.0414 H       1  UNL1        0.0296
     28 H           2.3201    1.2030    1.3745 H       1  UNL1        0.0296
     29 H           4.2574   -0.9903   -1.4088 H       1  UNL1        0.0427
     30 H           4.4923    0.6053   -2.1302 H       1  UNL1        0.0427
     31 H           4.4537    0.3211    2.0635 H       1  UNL1        0.0427
     32 H           4.2333   -1.1623    1.1293 H       1  UNL1        0.0427
     33 H           6.5143    0.8152    0.8901 H       1  UNL1        0.0391
     34 H           6.5308    0.9336   -0.8628 H       1  UNL1        0.0391
     35 H           6.3609   -0.6584   -0.0914 H       1  UNL1        0.0391
     36 H          -0.5783   -1.0996   -2.3548 H       1  UNL1        0.0636
     37 H          -2.2874   -3.3142    1.7450 H       1  UNL1        0.0621
     38 H           0.2395   -1.9828    2.6744 H       1  UNL1        0.0278
     39 H          -1.3929   -1.3796    3.0243 H       1  UNL1        0.0278
     40 H          -0.1939   -0.2972    2.3526 H       1  UNL1        0.0278
     41 H          -2.1882   -2.9658   -2.5305 H       1  UNL1        0.0618
     42 H          -3.0418   -4.0725   -0.4807 H       1  UNL1        0.0618
     43 H          -1.6976    1.3826    2.1429 H       1  UNL1        0.0625
     44 H          -1.6912    1.6304   -2.1627 H       1  UNL1        0.0625
     45 H          -4.1461    1.6533    2.1501 H       1  UNL1        0.0618
     46 H          -4.1451    1.9211   -2.1386 H       1  UNL1        0.0618
     47 H          -5.3775    1.9323    0.0146 H       1  UNL1        0.0618
@<TRIPOS>BOND
     1     1    11    2
     2     2     7    1
     3     2     8    1
     4     2    10    1
     5     3     4    1
     6     3     9    1
     7     3    11   am
     8     4     5    1
     9     4     6    1
    10     4    24    1
    11     5     7    1
    12     5    25    1
    13     5    26    1
    14     6     8    1
    15     6    27    1
    16     6    28    1
    17     7    29    1
    18     7    30    1
    19     8    31    1
    20     8    32    1
    21     9    12   ar
    22     9    13   ar
    23    10    33    1
    24    10    34    1
    25    10    35    1
    26    11    14    1
    27    12    15   ar
    28    12    16    1
    29    13    17   ar
    30    13    36    1
    31    14    19   ar
    32    14    20   ar
    33    15    18   ar
    34    15    37    1
    35    16    38    1
    36    16    39    1
    37    16    40    1
    38    17    18   ar
    39    17    41    1
    40    18    42    1
    41    19    21   ar
    42    19    43    1
    43    20    22   ar
    44    20    44    1
    45    21    23   ar
    46    21    45    1
    47    22    23   ar
    48    22    46    1
    49    23    47    1
@<TRIPOS>MOLECULE
91736720
 53 55 0 0 0
SMALL
GASTEIGER

@<TRIPOS>ATOM
      1 O          -2.6325   -2.8421   -0.2341 O.2     1  UNL1       -0.2756
      2 N           0.9311   -0.3271    0.3210 N.3     1  UNL1       -0.3019
      3 N          -3.2857   -0.5738    0.0254 N.am    1  UNL1       -0.2685
      4 C          -1.9705    0.0047    0.1429 C.3     1  UNL1        0.0334
      5 C          -1.1106   -0.3309   -1.0759 C.3     1  UNL1       -0.0210
      6 C          -1.2801   -0.4677    1.4221 C.3     1  UNL1       -0.0210
      7 C           0.3171    0.1923   -0.9089 C.3     1  UNL1        0.0006
      8 C           0.1536    0.0590    1.5066 C.3     1  UNL1        0.0006
      9 C           2.3119    0.1406    0.4404 C.3     1  UNL1        0.0029
     10 C           3.2573   -0.7248   -0.3934 C.3     1  UNL1       -0.0149
     11 C          -4.4243    0.3408    0.0015 C.ar    1  UNL1        0.0365
     12 C          -3.5000   -1.9685   -0.1554 C.2     1  UNL1        0.2169
     13 C           4.6881   -0.2668   -0.2617 C.ar    1  UNL1       -0.0461
     14 C          -5.2247    0.4271   -1.1376 C.ar    1  UNL1       -0.0403
     15 C          -4.7112    1.1277    1.1168 C.ar    1  UNL1       -0.0403
     16 C          -4.9468   -2.4028   -0.2104 C.3     1  UNL1        0.0127
     17 C           5.1994    0.6849   -1.1442 C.ar    1  UNL1       -0.0583
     18 C           5.5007   -0.7967    0.7404 C.ar    1  UNL1       -0.0583
     19 C          -6.3122    1.3004   -1.1614 C.ar    1  UNL1       -0.0600
     20 C          -5.7988    2.0009    1.0931 C.ar    1  UNL1       -0.0600
     21 C           6.5236    1.1065   -1.0244 C.ar    1  UNL1       -0.0586
     22 C           6.8249   -0.3751    0.8601 C.ar    1  UNL1       -0.0586
     23 C          -6.5991    2.0873   -0.0460 C.ar    1  UNL1       -0.0616
     24 C           7.3364    0.5766   -0.0222 C.ar    1  UNL1       -0.0504
     25 C           8.7524    1.0273    0.1050 C.3     1  UNL1       -0.0397
     26 H          -2.0626    1.0988    0.1909 H       1  UNL1        0.0505
     27 H          -1.5573    0.1080   -1.9769 H       1  UNL1        0.0296
     28 H          -1.0541   -1.4089   -1.2584 H       1  UNL1        0.0296
     29 H          -1.2549   -1.5627    1.4785 H       1  UNL1        0.0296
     30 H          -1.8438   -0.1301    2.3003 H       1  UNL1        0.0296
     31 H           0.3031    1.2905   -0.9057 H       1  UNL1        0.0427
     32 H           0.8877   -0.1192   -1.7906 H       1  UNL1        0.0427
     33 H           0.6127   -0.3625    2.4094 H       1  UNL1        0.0427
     34 H           0.1404    1.1505    1.6262 H       1  UNL1        0.0427
     35 H           2.6421    0.0624    1.4858 H       1  UNL1        0.0430
     36 H           2.4040    1.2031    0.1776 H       1  UNL1        0.0430
     37 H           2.9832   -0.7102   -1.4550 H       1  UNL1        0.0326
     38 H           3.1826   -1.7756   -0.0827 H       1  UNL1        0.0326
     39 H          -4.9980   -0.1531   -2.0280 H       1  UNL1        0.0636
     40 H          -4.0996    1.0673    2.0129 H       1  UNL1        0.0636
     41 H          -5.3471   -2.2813   -1.2189 H       1  UNL1        0.0323
     42 H          -5.5670   -1.8933    0.5303 H       1  UNL1        0.0323
     43 H          -4.9946   -3.4710    0.0308 H       1  UNL1        0.0323
     44 H           4.5752    1.1063   -1.9277 H       1  UNL1        0.0620
     45 H           5.1131   -1.5374    1.4348 H       1  UNL1        0.0620
     46 H          -6.9310    1.3733   -2.0509 H       1  UNL1        0.0618
     47 H          -6.0228    2.6130    1.9618 H       1  UNL1        0.0618
     48 H           6.9099    1.8500   -1.7166 H       1  UNL1        0.0620
     49 H           7.4477   -0.7939    1.6462 H       1  UNL1        0.0620
     50 H          -7.4449    2.7683   -0.0650 H       1  UNL1        0.0618
     51 H           8.8123    1.8940    0.7707 H       1  UNL1        0.0278
     52 H           9.3861    0.2303    0.5087 H       1  UNL1        0.0278
     53 H           9.1681    1.3039   -0.8699 H       1  UNL1        0.0278
@<TRIPOS>BOND
     1     1    12    2
     2     2     7    1
     3     2     8    1
     4     2     9    1
     5     3     4    1
     6     3    11    1
     7     3    12   am
     8     4     5    1
     9     4     6    1
    10     4    26    1
    11     5     7    1
    12     5    27    1
    13     5    28    1
    14     6     8    1
    15     6    29    1
    16     6    30    1
    17     7    31    1
    18     7    32    1
    19     8    33    1
    20     8    34    1
    21     9    10    1
    22     9    35    1
    23     9    36    1
    24    10    13    1
    25    10    37    1
    26    10    38    1
    27    11    14   ar
    28    11    15   ar
    29    12    16    1
    30    13    17   ar
    31    13    18   ar
    32    14    19   ar
    33    14    39    1
    34    15    20   ar
    35    15    40    1
    36    16    41    1
    37    16    42    1
    38    16    43    1
    39    17    21   ar
    40    17    44    1
    41    18    22   ar
    42    18    45    1
    43    19    23   ar
    44    19    46    1
    45    20    23   ar
    46    20    47    1
    47    21    24   ar
    48    21    48    1
    49    22    24   ar
    50    22    49    1
    51    23    50    1
    52    24    25    1
    53    25    51    1
    54    25    52    1
    55    25    53    1
@<TRIPOS>MOLECULE
527015
 50 52 0 0 0
SMALL
GASTEIGER

@<TRIPOS>ATOM
      1 O          -3.9148   -3.1374    0.1207 O.2     1  UNL1       -0.2756
      2 N           1.0358   -0.4651   -0.4370 N.3     1  UNL1       -0.3019
      3 N          -3.1313   -0.8953    0.1784 N.am    1  UNL1       -0.2685
      4 C          -1.7185   -1.1733    0.2503 C.3     1  UNL1        0.0334
      5 C          -1.1386   -1.4104   -1.1438 C.3     1  UNL1       -0.0210
      6 C          -0.9689   -0.0377    0.9477 C.3     1  UNL1       -0.0210
      7 C           0.3776   -1.6056   -1.0890 C.3     1  UNL1        0.0006
      8 C           0.5415   -0.2793    0.9343 C.3     1  UNL1        0.0006
      9 C           2.4877   -0.6438   -0.4376 C.3     1  UNL1        0.0029
     10 C           3.1922    0.5943    0.1182 C.3     1  UNL1       -0.0149
     11 C          -3.5394    0.5034    0.0693 C.ar    1  UNL1        0.0365
     12 C          -4.1169   -1.9205    0.1191 C.2     1  UNL1        0.2169
     13 C           4.6913    0.4320    0.1023 C.ar    1  UNL1       -0.0462
     14 C          -3.8457    1.1635    1.2219 C.ar    1  UNL1       -0.0403
     15 C          -3.5861    1.0523   -1.1776 C.ar    1  UNL1       -0.0403
     16 C          -5.5507   -1.4426    0.0964 C.3     1  UNL1        0.0127
     17 C           5.3287   -0.1166    1.2050 C.ar    1  UNL1       -0.0585
     18 C           5.4082    0.8341   -1.0146 C.ar    1  UNL1       -0.0585
     19 C          -4.2354    2.4987    1.1178 C.ar    1  UNL1       -0.0600
     20 C          -3.9756    2.3876   -1.2816 C.ar    1  UNL1       -0.0600
     21 C          -4.3003    3.1108   -0.1340 C.ar    1  UNL1       -0.0616
     22 C           6.7155   -0.2666    1.1903 C.ar    1  UNL1       -0.0615
     23 C           6.7949    0.6839   -1.0295 C.ar    1  UNL1       -0.0615
     24 C           7.4485    0.1335    0.0730 C.ar    1  UNL1       -0.0617
     25 H          -1.5916   -2.0946    0.8343 H       1  UNL1        0.0505
     26 H          -1.3528   -0.5659   -1.8086 H       1  UNL1        0.0296
     27 H          -1.6042   -2.2907   -1.6034 H       1  UNL1        0.0296
     28 H          -1.3021    0.0582    1.9884 H       1  UNL1        0.0296
     29 H          -1.1285    0.9314    0.4596 H       1  UNL1        0.0296
     30 H           0.6089   -2.5426   -0.5652 H       1  UNL1        0.0427
     31 H           0.7444   -1.7091   -2.1176 H       1  UNL1        0.0427
     32 H           0.9741    0.6031    1.4124 H       1  UNL1        0.0427
     33 H           0.7833   -1.1477    1.5612 H       1  UNL1        0.0427
     34 H           2.8332   -0.8082   -1.4669 H       1  UNL1        0.0430
     35 H           2.7747   -1.5354    0.1366 H       1  UNL1        0.0430
     36 H           2.9128    1.4851   -0.4602 H       1  UNL1        0.0326
     37 H           2.9167    0.8107    1.1551 H       1  UNL1        0.0326
     38 H          -3.7999    0.6874    2.1957 H       1  UNL1        0.0636
     39 H          -3.3541    0.4910   -2.0755 H       1  UNL1        0.0636
     40 H          -6.2167   -2.3109    0.0512 H       1  UNL1        0.0323
     41 H          -5.7896   -0.8901    1.0082 H       1  UNL1        0.0323
     42 H          -5.7471   -0.8333   -0.7889 H       1  UNL1        0.0323
     43 H           4.7671   -0.4341    2.0790 H       1  UNL1        0.0620
     44 H           4.9080    1.2621   -1.8787 H       1  UNL1        0.0620
     45 H          -4.4896    3.0613    2.0112 H       1  UNL1        0.0618
     46 H          -4.0307    2.8628   -2.2567 H       1  UNL1        0.0618
     47 H          -4.6050    4.1502   -0.2151 H       1  UNL1        0.0618
     48 H           7.2245   -0.6957    2.0484 H       1  UNL1        0.0618
     49 H           7.3656    0.9951   -1.8995 H       1  UNL1        0.0618
     50 H           8.5282    0.0163    0.0614 H       1  UNL1        0.0618
@<TRIPOS>BOND
     1     1    12    2
     2     2     7    1
     3     2     8    1
     4     2     9    1
     5     3     4    1
     6     3    11    1
     7     3    12   am
     8     4     5    1
     9     4     6    1
    10     4    25    1
    11     5     7    1
    12     5    26    1
    13     5    27    1
    14     6     8    1
    15     6    28    1
    16     6    29    1
    17     7    30    1
    18     7    31    1
    19     8    32    1
    20     8    33    1
    21     9    10    1
    22     9    34    1
    23     9    35    1
    24    10    13    1
    25    10    36    1
    26    10    37    1
    27    11    14   ar
    28    11    15   ar
    29    12    16    1
    30    13    17   ar
    31    13    18   ar
    32    14    19   ar
    33    14    38    1
    34    15    20   ar
    35    15    39    1
    36    16    40    1
    37    16    41    1
    38    16    42    1
    39    17    22   ar
    40    17    43    1
    41    18    23   ar
    42    18    44    1
    43    19    21   ar
    44    19    45    1
    45    20    21   ar
    46    20    46    1
    47    21    47    1
    48    22    24   ar
    49    22    48    1
    50    23    24   ar
    51    23    49    1
    52    24    50    1
@<TRIPOS>MOLECULE
259381
 37 38 0 0 0
SMALL
GASTEIGER

@<TRIPOS>ATOM
      1 O           0.6081    3.0455    0.0208 O.2     1  UNL1       -0.2753
      2 N           0.1518    0.7198    0.0094 N.am    1  UNL1       -0.2683
      3 N          -3.8889   -0.5367   -0.0133 N.3     1  UNL1       -0.3159
      4 C          -1.2878    0.7957    0.0059 C.3     1  UNL1        0.0334
      5 C          -1.8773    0.1378    1.2552 C.3     1  UNL1       -0.0213
      6 C          -1.8644    0.1499   -1.2551 C.3     1  UNL1       -0.0213
      7 C          -3.4039    0.1194    1.2015 C.3     1  UNL1       -0.0024
      8 C          -3.3915    0.1300   -1.2171 C.3     1  UNL1       -0.0024
      9 C           0.7797   -0.5996    0.0052 C.ar    1  UNL1        0.0366
     10 C           0.9921    1.8731    0.0167 C.2     1  UNL1        0.2198
     11 C           2.4890    1.5798   -0.0288 C.3     1  UNL1        0.0217
     12 C           1.0479   -1.1750    1.2114 C.ar    1  UNL1       -0.0403
     13 C           1.0547   -1.1643   -1.2046 C.ar    1  UNL1       -0.0403
     14 C           3.3380    2.8417   -0.0040 C.3     1  UNL1       -0.0570
     15 C           1.6477   -2.4343    1.2075 C.ar    1  UNL1       -0.0600
     16 C           1.6542   -2.4238   -1.2085 C.ar    1  UNL1       -0.0600
     17 C           1.9507   -3.0589   -0.0024 C.ar    1  UNL1       -0.0616
     18 H          -1.5782    1.8542    0.0096 H       1  UNL1        0.0505
     19 H          -1.5447    0.6683    2.1556 H       1  UNL1        0.0296
     20 H          -1.5492   -0.9022    1.3593 H       1  UNL1        0.0296
     21 H          -1.5359   -0.8892   -1.3660 H       1  UNL1        0.0296
     22 H          -1.5234    0.6889   -2.1473 H       1  UNL1        0.0296
     23 H          -3.7947   -0.4154    2.0742 H       1  UNL1        0.0425
     24 H          -3.7999    1.1406    1.2567 H       1  UNL1        0.0425
     25 H          -3.7875    1.1514   -1.2677 H       1  UNL1        0.0425
     26 H          -3.7730   -0.3974   -2.0984 H       1  UNL1        0.0425
     27 H          -3.5683   -1.5054   -0.0158 H       1  UNL1        0.1219
     28 H           2.7246    1.0334   -0.9472 H       1  UNL1        0.0356
     29 H           2.7698    0.9725    0.8369 H       1  UNL1        0.0356
     30 H           0.8256   -0.6872    2.1546 H       1  UNL1        0.0636
     31 H           0.8378   -0.6684   -2.1447 H       1  UNL1        0.0636
     32 H           4.4016    2.5853   -0.0324 H       1  UNL1        0.0234
     33 H           3.1512    3.4239    0.9045 H       1  UNL1        0.0234
     34 H           3.1184    3.4812   -0.8653 H       1  UNL1        0.0234
     35 H           1.8816   -2.9273    2.1466 H       1  UNL1        0.0618
     36 H           1.8931   -2.9085   -2.1506 H       1  UNL1        0.0618
     37 H           2.4189   -4.0389   -0.0055 H       1  UNL1        0.0618
@<TRIPOS>BOND
     1     1    10    2
     2     2     4    1
     3     2     9    1
     4     2    10   am
     5     3     7    1
     6     3     8    1
     7     3    27    1
     8     4     5    1
     9     4     6    1
    10     4    18    1
    11     5     7    1
    12     5    19    1
    13     5    20    1
    14     6     8    1
    15     6    21    1
    16     6    22    1
    17     7    23    1
    18     7    24    1
    19     8    25    1
    20     8    26    1
    21     9    12   ar
    22     9    13   ar
    23    10    11    1
    24    11    14    1
    25    11    28    1
    26    11    29    1
    27    12    15   ar
    28    12    30    1
    29    13    16   ar
    30    13    31    1
    31    14    32    1
    32    14    33    1
    33    14    34    1
    34    15    17   ar
    35    15    35    1
    36    16    17   ar
    37    16    36    1
    38    17    37    1
@<TRIPOS>MOLECULE
21595398
 59 61 0 0 0
SMALL
GASTEIGER

@<TRIPOS>ATOM
      1 O          -2.1415    1.7598   -1.5554 O.2     1  UNL1       -0.2752
      2 N           1.7333   -0.2641   -0.4783 N.3     1  UNL1       -0.3019
      3 N          -2.5001   -0.2663   -0.3864 N.am    1  UNL1       -0.2683
      4 C          -1.1443   -0.7297   -0.2263 C.3     1  UNL1        0.0334
      5 C          -0.4241   -0.7817   -1.5734 C.3     1  UNL1       -0.0210
      6 C          -0.3716    0.1560    0.7515 C.3     1  UNL1       -0.0210
      7 C           1.0445   -1.1745   -1.4035 C.3     1  UNL1        0.0006
      8 C           1.0949   -0.2689    0.8453 C.3     1  UNL1        0.0006
      9 C           3.1470   -0.6226   -0.3658 C.3     1  UNL1        0.0029
     10 C           3.9883    0.5879    0.0407 C.3     1  UNL1       -0.0149
     11 C          -2.8281    1.0559   -0.8104 C.2     1  UNL1        0.2200
     12 C          -3.5744   -1.1785    0.0049 C.ar    1  UNL1        0.0366
     13 C          -4.1747    1.5793   -0.3139 C.3     1  UNL1        0.0245
     14 C           5.4516    0.2371    0.1385 C.ar    1  UNL1       -0.0462
     15 C          -4.2200    3.0982   -0.1234 C.3     1  UNL1       -0.0450
     16 C          -4.5692   -1.5184   -0.9121 C.ar    1  UNL1       -0.0403
     17 C          -3.6039   -1.7093    1.2945 C.ar    1  UNL1       -0.0403
     18 C          -3.1872    3.5910    0.8936 C.3     1  UNL1       -0.0555
     19 C           5.9813   -0.2142    1.3475 C.ar    1  UNL1       -0.0585
     20 C           6.2756    0.3633   -0.9799 C.ar    1  UNL1       -0.0585
     21 C          -5.5935   -2.3886   -0.5394 C.ar    1  UNL1       -0.0600
     22 C          -4.6284   -2.5796    1.6671 C.ar    1  UNL1       -0.0600
     23 C          -5.6232   -2.9192    0.7501 C.ar    1  UNL1       -0.0616
     24 C          -3.2549    5.1005    1.0658 C.3     1  UNL1       -0.0653
     25 C           7.3348   -0.5390    1.4382 C.ar    1  UNL1       -0.0615
     26 C           7.6292    0.0383   -0.8892 C.ar    1  UNL1       -0.0615
     27 C           8.1586   -0.4128    0.3199 C.ar    1  UNL1       -0.0617
     28 H          -1.1530   -1.7528    0.1737 H       1  UNL1        0.0505
     29 H          -0.9216   -1.5022   -2.2346 H       1  UNL1        0.0296
     30 H          -0.4578    0.1824   -2.0913 H       1  UNL1        0.0296
     31 H          -0.4124    1.2088    0.4444 H       1  UNL1        0.0296
     32 H          -0.8304    0.1088    1.7466 H       1  UNL1        0.0296
     33 H           1.5190   -1.1344   -2.3918 H       1  UNL1        0.0427
     34 H           1.1117   -2.2125   -1.0516 H       1  UNL1        0.0427
     35 H           1.1559   -1.2639    1.3061 H       1  UNL1        0.0427
     36 H           1.5974    0.4307    1.5219 H       1  UNL1        0.0427
     37 H           3.5232   -0.9630   -1.3407 H       1  UNL1        0.0430
     38 H           3.2977   -1.4653    0.3225 H       1  UNL1        0.0430
     39 H           3.6630    0.9970    1.0047 H       1  UNL1        0.0326
     40 H           3.8577    1.4014   -0.6856 H       1  UNL1        0.0326
     41 H          -4.9383    1.2953   -1.0462 H       1  UNL1        0.0358
     42 H          -4.4340    1.1234    0.6470 H       1  UNL1        0.0358
     43 H          -5.2266    3.3841    0.2052 H       1  UNL1        0.0270
     44 H          -4.0464    3.5932   -1.0868 H       1  UNL1        0.0270
     45 H          -4.5531   -1.1203   -1.9234 H       1  UNL1        0.0636
     46 H          -2.8431   -1.4485    2.0251 H       1  UNL1        0.0636
     47 H          -2.1727    3.3225    0.5810 H       1  UNL1        0.0263
     48 H          -3.3643    3.1096    1.8624 H       1  UNL1        0.0263
     49 H           5.3489   -0.3188    2.2252 H       1  UNL1        0.0620
     50 H           5.8744    0.7119   -1.9278 H       1  UNL1        0.0620
     51 H          -6.3668   -2.6547   -1.2540 H       1  UNL1        0.0618
     52 H          -4.6529   -2.9912    2.6719 H       1  UNL1        0.0618
     53 H          -6.4208   -3.5968    1.0403 H       1  UNL1        0.0618
     54 H          -4.2441    5.4113    1.4170 H       1  UNL1        0.0230
     55 H          -2.5143    5.4318    1.8004 H       1  UNL1        0.0230
     56 H          -3.0486    5.6126    0.1206 H       1  UNL1        0.0230
     57 H           7.7470   -0.8910    2.3794 H       1  UNL1        0.0618
     58 H           8.2708    0.1360   -1.7600 H       1  UNL1        0.0618
     59 H           9.2124   -0.6660    0.3904 H       1  UNL1        0.0618
@<TRIPOS>BOND
     1     1    11    2
     2     2     7    1
     3     2     8    1
     4     2     9    1
     5     3     4    1
     6     3    11   am
     7     3    12    1
     8     4     5    1
     9     4     6    1
    10     4    28    1
    11     5     7    1
    12     5    29    1
    13     5    30    1
    14     6     8    1
    15     6    31    1
    16     6    32    1
    17     7    33    1
    18     7    34    1
    19     8    35    1
    20     8    36    1
    21     9    10    1
    22     9    37    1
    23     9    38    1
    24    10    14    1
    25    10    39    1
    26    10    40    1
    27    11    13    1
    28    12    16   ar
    29    12    17   ar
    30    13    15    1
    31    13    41    1
    32    13    42    1
    33    14    19   ar
    34    14    20   ar
    35    15    18    1
    36    15    43    1
    37    15    44    1
    38    16    21   ar
    39    16    45    1
    40    17    22   ar
    41    17    46    1
    42    18    24    1
    43    18    47    1
    44    18    48    1
    45    19    25   ar
    46    19    49    1
    47    20    26   ar
    48    20    50    1
    49    21    23   ar
    50    21    51    1
    51    22    23   ar
    52    22    52    1
    53    23    53    1
    54    24    54    1
    55    24    55    1
    56    24    56    1
    57    25    27   ar
    58    25    57    1
    59    26    27   ar
    60    26    58    1
    61    27    59    1
@<TRIPOS>MOLECULE
137332293
 58 61 0 0 0
SMALL
GASTEIGER

@<TRIPOS>ATOM
      1 O          -3.8888    1.4890    1.1512 O.3     1  UNL1       -0.3673
      2 O          -1.9509    1.8505   -1.4782 O.2     1  UNL1       -0.2724
      3 N           1.9403   -0.1996   -0.4941 N.3     1  UNL1       -0.3019
      4 N          -2.2932   -0.2517   -0.4282 N.am    1  UNL1       -0.2662
      5 C          -0.9334   -0.7094   -0.2875 C.3     1  UNL1        0.0335
      6 C          -0.2053   -0.6746   -1.6309 C.3     1  UNL1       -0.0210
      7 C          -0.1758    0.1253    0.7454 C.3     1  UNL1       -0.0210
      8 C           1.2665   -1.0614   -1.4752 C.3     1  UNL1        0.0006
      9 C           1.2948   -0.2889    0.8230 C.3     1  UNL1        0.0006
     10 C           3.3572   -0.5492   -0.3941 C.3     1  UNL1        0.0029
     11 C          -3.9425    1.5795   -0.2752 C.3     1  UNL1        0.1349
     12 C          -2.6225    1.0867   -0.7802 C.2     1  UNL1        0.2489
     13 C          -4.1940    3.0327   -0.6295 C.3     1  UNL1       -0.0159
     14 C          -3.3589   -1.1954   -0.1008 C.ar    1  UNL1        0.0366
     15 C           4.1830    0.6438    0.0882 C.3     1  UNL1       -0.0149
     16 C          -3.6391    3.7629    0.5700 C.3     1  UNL1       -0.0266
     17 C          -3.9714    2.8121    1.6976 C.3     1  UNL1        0.0487
     18 C          -4.3407   -1.4937   -1.0456 C.ar    1  UNL1       -0.0403
     19 C          -3.3948   -1.7980    1.1565 C.ar    1  UNL1       -0.0403
     20 C           5.6495    0.3033    0.1747 C.ar    1  UNL1       -0.0462
     21 C          -5.3587   -2.3947   -0.7330 C.ar    1  UNL1       -0.0600
     22 C          -4.4127   -2.6989    1.4692 C.ar    1  UNL1       -0.0600
     23 C           6.1773   -0.2124    1.3584 C.ar    1  UNL1       -0.0585
     24 C           6.4780    0.5039   -0.9292 C.ar    1  UNL1       -0.0585
     25 C          -5.3947   -2.9972    0.5245 C.ar    1  UNL1       -0.0616
     26 C           7.5340   -0.5272    1.4382 C.ar    1  UNL1       -0.0615
     27 C           7.8345    0.1890   -0.8496 C.ar    1  UNL1       -0.0615
     28 C           8.3625   -0.3264    0.3342 C.ar    1  UNL1       -0.0617
     29 H          -0.9335   -1.7542    0.0520 H       1  UNL1        0.0505
     30 H          -0.6913   -1.3602   -2.3362 H       1  UNL1        0.0296
     31 H          -0.2466    0.3179   -2.0914 H       1  UNL1        0.0296
     32 H          -0.2270    1.1941    0.5012 H       1  UNL1        0.0296
     33 H          -0.6395    0.0142    1.7331 H       1  UNL1        0.0296
     34 H           1.3429   -2.1174   -1.1843 H       1  UNL1        0.0427
     35 H           1.7460   -0.9583   -2.4565 H       1  UNL1        0.0427
     36 H           1.7859    0.3750    1.5427 H       1  UNL1        0.0427
     37 H           1.3640   -1.3086    1.2250 H       1  UNL1        0.0427
     38 H           3.7424   -0.8276   -1.3850 H       1  UNL1        0.0430
     39 H           3.5132   -1.4294    0.2443 H       1  UNL1        0.0430
     40 H          -4.7688    0.9796   -0.6586 H       1  UNL1        0.0693
     41 H          -5.2767    3.2088   -0.6757 H       1  UNL1        0.0296
     42 H          -3.7753    3.3744   -1.5799 H       1  UNL1        0.0296
     43 H           3.8478    0.9920    1.0725 H       1  UNL1        0.0326
     44 H           4.0478    1.4973   -0.5896 H       1  UNL1        0.0326
     45 H          -2.5520    3.8664    0.4747 H       1  UNL1        0.0288
     46 H          -4.0665    4.7588    0.7132 H       1  UNL1        0.0288
     47 H          -3.2858    2.9050    2.5443 H       1  UNL1        0.0560
     48 H          -4.9951    2.9637    2.0563 H       1  UNL1        0.0560
     49 H          -4.3183   -1.0416   -2.0339 H       1  UNL1        0.0636
     50 H          -2.6441   -1.5703    1.9083 H       1  UNL1        0.0636
     51 H          -6.1217   -2.6290   -1.4695 H       1  UNL1        0.0618
     52 H          -4.4421   -3.1665    2.4490 H       1  UNL1        0.0618
     53 H           5.5414   -0.3751    2.2245 H       1  UNL1        0.0620
     54 H           6.0781    0.9032   -1.8575 H       1  UNL1        0.0620
     55 H          -6.1872   -3.6988    0.7680 H       1  UNL1        0.0618
     56 H           7.9450   -0.9291    2.3596 H       1  UNL1        0.0618
     57 H           8.4796    0.3447   -1.7093 H       1  UNL1        0.0618
     58 H           9.4187   -0.5717    0.3961 H       1  UNL1        0.0618
@<TRIPOS>BOND
     1     1    11    1
     2     1    17    1
     3     2    12    2
     4     3     8    1
     5     3     9    1
     6     3    10    1
     7     4     5    1
     8     4    12   am
     9     4    14    1
    10     5     6    1
    11     5     7    1
    12     5    29    1
    13     6     8    1
    14     6    30    1
    15     6    31    1
    16     7     9    1
    17     7    32    1
    18     7    33    1
    19     8    34    1
    20     8    35    1
    21     9    36    1
    22     9    37    1
    23    10    15    1
    24    10    38    1
    25    10    39    1
    26    11    12    1
    27    11    13    1
    28    11    40    1
    29    13    16    1
    30    13    41    1
    31    13    42    1
    32    14    18   ar
    33    14    19   ar
    34    15    20    1
    35    15    43    1
    36    15    44    1
    37    16    17    1
    38    16    45    1
    39    16    46    1
    40    17    47    1
    41    17    48    1
    42    18    21   ar
    43    18    49    1
    44    19    22   ar
    45    19    50    1
    46    20    23   ar
    47    20    24   ar
    48    21    25   ar
    49    21    51    1
    50    22    25   ar
    51    22    52    1
    52    23    26   ar
    53    23    53    1
    54    24    27   ar
    55    24    54    1
    56    25    55    1
    57    26    28   ar
    58    26    56    1
    59    27    28   ar
    60    27    57    1
    61    28    58    1
@<TRIPOS>MOLECULE
118796493
 60 62 0 0 0
SMALL
GASTEIGER

@<TRIPOS>ATOM
      1 O          -1.4283    2.8253   -0.9322 O.2     1  UNL1       -0.2752
      2 O          -6.6680   -2.5961    0.0386 O.3     1  UNL1       -0.4951
      3 N           2.1134    0.0814   -0.4863 N.3     1  UNL1       -0.3019
      4 N          -2.0863    0.6141   -0.3945 N.am    1  UNL1       -0.2683
      5 C          -0.8073   -0.0510   -0.3748 C.3     1  UNL1        0.0334
      6 C          -0.0504    0.1854   -1.6815 C.3     1  UNL1       -0.0210
      7 C           0.0352    0.4112    0.8144 C.3     1  UNL1       -0.0210
      8 C           1.3490   -0.4304   -1.6321 C.3     1  UNL1        0.0006
      9 C           1.4313   -0.2132    0.7815 C.3     1  UNL1        0.0006
     10 C           3.4649   -0.4783   -0.4821 C.3     1  UNL1        0.0029
     11 C           4.4378    0.4448    0.2523 C.3     1  UNL1       -0.0149
     12 C          -3.2790   -0.2211   -0.2813 C.ar    1  UNL1        0.0368
     13 C          -2.2247    2.0336   -0.4215 C.2     1  UNL1        0.2200
     14 C          -3.5071    2.5692    0.2112 C.3     1  UNL1        0.0242
     15 C           5.8399   -0.1101    0.2450 C.ar    1  UNL1       -0.0462
     16 C          -3.4232   -1.0880    0.8019 C.ar    1  UNL1       -0.0368
     17 C          -4.2739   -0.1523   -1.2567 C.ar    1  UNL1       -0.0368
     18 C          -3.3289    3.9615    0.8183 C.3     1  UNL1       -0.0476
     19 C          -4.5620   -1.8859    0.9098 C.ar    1  UNL1       -0.0182
     20 C          -5.4128   -0.9502   -1.1488 C.ar    1  UNL1       -0.0182
     21 C           6.2630   -0.9508    1.2745 C.ar    1  UNL1       -0.0585
     22 C           6.7138    0.2174   -0.7916 C.ar    1  UNL1       -0.0585
     23 C          -5.5570   -1.8171   -0.0654 C.ar    1  UNL1        0.1202
     24 C          -2.2927    3.9562    1.9305 C.3     1  UNL1       -0.0648
     25 C           7.5601   -1.4638    1.2675 C.ar    1  UNL1       -0.0615
     26 C           8.0108   -0.2956   -0.7987 C.ar    1  UNL1       -0.0615
     27 C           8.4340   -1.1362    0.2309 C.ar    1  UNL1       -0.0617
     28 C          -6.7515   -3.4599    1.1714 C.3     1  UNL1        0.0788
     29 H          -0.9604   -1.1350   -0.2836 H       1  UNL1        0.0505
     30 H           0.0577    1.2524   -1.9025 H       1  UNL1        0.0296
     31 H          -0.6108   -0.2460   -2.5203 H       1  UNL1        0.0296
     32 H          -0.4623    0.1454    1.7550 H       1  UNL1        0.0296
     33 H           0.1403    1.5035    0.8207 H       1  UNL1        0.0296
     34 H           1.8608   -0.1756   -2.5683 H       1  UNL1        0.0427
     35 H           1.2704   -1.5249   -1.5910 H       1  UNL1        0.0427
     36 H           1.3482   -1.2968    0.9391 H       1  UNL1        0.0427
     37 H           1.9934    0.1933    1.6292 H       1  UNL1        0.0427
     38 H           3.4817   -1.4936   -0.0634 H       1  UNL1        0.0430
     39 H           3.8305   -0.5753   -1.5140 H       1  UNL1        0.0430
     40 H           4.1317    0.6036    1.2932 H       1  UNL1        0.0326
     41 H           4.4389    1.4404   -0.2112 H       1  UNL1        0.0326
     42 H          -3.8600    1.9014    1.0034 H       1  UNL1        0.0358
     43 H          -4.2756    2.6183   -0.5678 H       1  UNL1        0.0358
     44 H          -2.6627   -1.1471    1.5758 H       1  UNL1        0.0637
     45 H          -4.1704    0.5116   -2.1110 H       1  UNL1        0.0637
     46 H          -3.0304    4.6805    0.0468 H       1  UNL1        0.0267
     47 H          -4.2899    4.3014    1.2211 H       1  UNL1        0.0267
     48 H          -4.6109   -2.5351    1.7773 H       1  UNL1        0.0655
     49 H          -6.1834   -0.8938   -1.9128 H       1  UNL1        0.0655
     50 H           5.5905   -1.2149    2.0864 H       1  UNL1        0.0620
     51 H           6.3953    0.8699   -1.6002 H       1  UNL1        0.0620
     52 H          -2.5536    3.2305    2.7077 H       1  UNL1        0.0230
     53 H          -2.2430    4.9449    2.3982 H       1  UNL1        0.0230
     54 H          -1.2915    3.7177    1.5604 H       1  UNL1        0.0230
     55 H           7.8895   -2.1188    2.0688 H       1  UNL1        0.0618
     56 H           8.6912   -0.0411   -1.6061 H       1  UNL1        0.0618
     57 H           9.4439   -1.5358    0.2253 H       1  UNL1        0.0618
     58 H          -7.6982   -4.0045    1.0935 H       1  UNL1        0.0660
     59 H          -6.7848   -2.8930    2.1080 H       1  UNL1        0.0660
     60 H          -5.9512   -4.2077    1.1669 H       1  UNL1        0.0660
@<TRIPOS>BOND
     1     1    13    2
     2     2    23    1
     3     2    28    1
     4     3     8    1
     5     3     9    1
     6     3    10    1
     7     4     5    1
     8     4    12    1
     9     4    13   am
    10     5     6    1
    11     5     7    1
    12     5    29    1
    13     6     8    1
    14     6    30    1
    15     6    31    1
    16     7     9    1
    17     7    32    1
    18     7    33    1
    19     8    34    1
    20     8    35    1
    21     9    36    1
    22     9    37    1
    23    10    11    1
    24    10    38    1
    25    10    39    1
    26    11    15    1
    27    11    40    1
    28    11    41    1
    29    12    16   ar
    30    12    17   ar
    31    13    14    1
    32    14    18    1
    33    14    42    1
    34    14    43    1
    35    15    21   ar
    36    15    22   ar
    37    16    19   ar
    38    16    44    1
    39    17    20   ar
    40    17    45    1
    41    18    24    1
    42    18    46    1
    43    18    47    1
    44    19    23   ar
    45    19    48    1
    46    20    23   ar
    47    20    49    1
    48    21    25   ar
    49    21    50    1
    50    22    26   ar
    51    22    51    1
    52    24    52    1
    53    24    53    1
    54    24    54    1
    55    25    27   ar
    56    25    55    1
    57    26    27   ar
    58    26    56    1
    59    27    57    1
    60    28    58    1
    61    28    59    1
    62    28    60    1
@<TRIPOS>MOLECULE
86280430
 56 58 0 0 0
SMALL
GASTEIGER

@<TRIPOS>ATOM
      1 F          -6.7561   -3.0210    0.4723 F       1  UNL1       -0.2055
      2 O          -1.8245    2.5156   -1.1057 O.2     1  UNL1       -0.2752
      3 N           1.8561    0.0008   -0.4730 N.3     1  UNL1       -0.3019
      4 N          -2.3631    0.3361   -0.3497 N.am    1  UNL1       -0.2683
      5 C          -1.0524   -0.2614   -0.2925 C.3     1  UNL1        0.0334
      6 C          -0.3277   -0.1138   -1.6301 C.3     1  UNL1       -0.0210
      7 C          -0.2164    0.3517    0.8313 C.3     1  UNL1       -0.0210
      8 C           1.1013   -0.6538   -1.5504 C.3     1  UNL1        0.0006
      9 C           1.2085   -0.2048    0.8300 C.3     1  UNL1        0.0006
     10 C           3.2338   -0.4900   -0.4425 C.3     1  UNL1        0.0029
     11 C           4.1701    0.5446    0.1827 C.3     1  UNL1       -0.0149
     12 C          -3.5108   -0.5412   -0.1352 C.ar    1  UNL1        0.0367
     13 C          -2.5727    1.7383   -0.5074 C.2     1  UNL1        0.2200
     14 C          -3.8707    2.2689    0.0971 C.3     1  UNL1        0.0242
     15 C           5.5980    0.0599    0.2002 C.ar    1  UNL1       -0.0462
     16 C          -3.5959   -1.3064    1.0278 C.ar    1  UNL1       -0.0376
     17 C          -4.5224   -0.6134   -1.0932 C.ar    1  UNL1       -0.0376
     18 C          -3.7533    3.7195    0.5669 C.3     1  UNL1       -0.0476
     19 C           6.0778   -0.6578    1.2958 C.ar    1  UNL1       -0.0585
     20 C           6.4389    0.3295   -0.8794 C.ar    1  UNL1       -0.0585
     21 C          -4.6922   -2.1438    1.2331 C.ar    1  UNL1       -0.0247
     22 C          -5.6189   -1.4508   -0.8879 C.ar    1  UNL1       -0.0247
     23 C          -2.7017    3.8699    1.6543 C.3     1  UNL1       -0.0648
     24 C          -5.7038   -2.2160    0.2754 C.ar    1  UNL1        0.1235
     25 C           7.3987   -1.1059    1.3117 C.ar    1  UNL1       -0.0615
     26 C           7.7597   -0.1186   -0.8636 C.ar    1  UNL1       -0.0615
     27 C           8.2396   -0.8362    0.2321 C.ar    1  UNL1       -0.0617
     28 H          -1.1498   -1.3380   -0.0967 H       1  UNL1        0.0505
     29 H          -0.2763    0.9314   -1.9526 H       1  UNL1        0.0296
     30 H          -0.8782   -0.6494   -2.4136 H       1  UNL1        0.0296
     31 H          -0.6859    0.1527    1.8023 H       1  UNL1        0.0296
     32 H          -0.1660    1.4435    0.7327 H       1  UNL1        0.0296
     33 H           1.5857   -0.4645   -2.5162 H       1  UNL1        0.0427
     34 H           1.0781   -1.7420   -1.4050 H       1  UNL1        0.0427
     35 H           1.1820   -1.2713    1.0904 H       1  UNL1        0.0427
     36 H           1.7622    0.3070    1.6246 H       1  UNL1        0.0427
     37 H           3.5884   -0.6667   -1.4677 H       1  UNL1        0.0430
     38 H           3.3075   -1.4590    0.0694 H       1  UNL1        0.0430
     39 H           3.8720    0.7865    1.2098 H       1  UNL1        0.0326
     40 H           4.1146    1.4906   -0.3723 H       1  UNL1        0.0326
     41 H          -4.1780    1.6630    0.9553 H       1  UNL1        0.0358
     42 H          -4.6522    2.2067   -0.6679 H       1  UNL1        0.0358
     43 H          -2.8227   -1.2557    1.7895 H       1  UNL1        0.0637
     44 H          -4.4647   -0.0299   -2.0084 H       1  UNL1        0.0637
     45 H          -3.5026    4.3757   -0.2744 H       1  UNL1        0.0267
     46 H          -4.7240    4.0492    0.9547 H       1  UNL1        0.0267
     47 H           5.4315   -0.8759    2.1419 H       1  UNL1        0.0620
     48 H           6.0762    0.8861   -1.7395 H       1  UNL1        0.0620
     49 H          -4.7599   -2.7382    2.1395 H       1  UNL1        0.0647
     50 H          -6.4055   -1.5089   -1.6343 H       1  UNL1        0.0647
     51 H          -2.9144    3.2095    2.5012 H       1  UNL1        0.0230
     52 H          -2.6945    4.8998    2.0259 H       1  UNL1        0.0230
     53 H          -1.6955    3.6460    1.2888 H       1  UNL1        0.0230
     54 H           7.7723   -1.6652    2.1645 H       1  UNL1        0.0618
     55 H           8.4145    0.0908   -1.7044 H       1  UNL1        0.0618
     56 H           9.2680   -1.1853    0.2443 H       1  UNL1        0.0618
@<TRIPOS>BOND
     1     1    24    1
     2     2    13    2
     3     3     8    1
     4     3     9    1
     5     3    10    1
     6     4     5    1
     7     4    12    1
     8     4    13   am
     9     5     6    1
    10     5     7    1
    11     5    28    1
    12     6     8    1
    13     6    29    1
    14     6    30    1
    15     7     9    1
    16     7    31    1
    17     7    32    1
    18     8    33    1
    19     8    34    1
    20     9    35    1
    21     9    36    1
    22    10    11    1
    23    10    37    1
    24    10    38    1
    25    11    15    1
    26    11    39    1
    27    11    40    1
    28    12    16   ar
    29    12    17   ar
    30    13    14    1
    31    14    18    1
    32    14    41    1
    33    14    42    1
    34    15    19   ar
    35    15    20   ar
    36    16    21   ar
    37    16    43    1
    38    17    22   ar
    39    17    44    1
    40    18    23    1
    41    18    45    1
    42    18    46    1
    43    19    25   ar
    44    19    47    1
    45    20    26   ar
    46    20    48    1
    47    21    24   ar
    48    21    49    1
    49    22    24   ar
    50    22    50    1
    51    23    51    1
    52    23    52    1
    53    23    53    1
    54    25    27   ar
    55    25    54    1
    56    26    27   ar
    57    26    55    1
    58    27    56    1
@<TRIPOS>MOLECULE
88890
 45 47 0 0 0
SMALL
GASTEIGER

@<TRIPOS>ATOM
      1 N          -0.7354   -1.3374    0.0180 N.3     1  UNL1       -0.3019
      2 N           2.7634   -0.5343   -0.6974 N.pl3   1  UNL1       -0.3409
      3 C           2.1930   -1.5796    0.1308 C.3     1  UNL1        0.0230
      4 C           1.3708   -0.9644    1.2649 C.3     1  UNL1       -0.0217
      5 C           1.3192   -2.5064   -0.7169 C.3     1  UNL1       -0.0217
      6 C           0.0565   -0.3536    0.7680 C.3     1  UNL1        0.0006
      7 C           0.0072   -1.8409   -1.1448 C.3     1  UNL1        0.0006
      8 C          -2.0103   -0.7555   -0.4016 C.3     1  UNL1        0.0029
      9 C          -2.8510   -0.3475    0.8088 C.3     1  UNL1       -0.0149
     10 C           3.8724    0.1815   -0.3638 C.ar    1  UNL1        0.0273
     11 C          -4.1781    0.2335    0.3903 C.ar    1  UNL1       -0.0462
     12 C           4.3898    1.1949   -1.2134 C.ar    1  UNL1       -0.0408
     13 C           4.5707   -0.0461    0.8515 C.ar    1  UNL1       -0.0408
     14 C          -4.2852    1.5987    0.1717 C.ar    1  UNL1       -0.0585
     15 C          -5.2698   -0.6066    0.2310 C.ar    1  UNL1       -0.0585
     16 C           5.5254    1.9293   -0.8716 C.ar    1  UNL1       -0.0600
     17 C           5.7064    0.6883    1.1933 C.ar    1  UNL1       -0.0600
     18 C          -5.5127    2.1364   -0.2154 C.ar    1  UNL1       -0.0615
     19 C          -6.4973   -0.0690   -0.1560 C.ar    1  UNL1       -0.0615
     20 C           6.1837    1.6760    0.3318 C.ar    1  UNL1       -0.0616
     21 C          -6.6188    1.3026   -0.3793 C.ar    1  UNL1       -0.0617
     22 H           2.9907   -2.2084    0.5444 H       1  UNL1        0.0498
     23 H           1.9329   -0.1984    1.8099 H       1  UNL1        0.0295
     24 H           1.1376   -1.7521    1.9942 H       1  UNL1        0.0295
     25 H           1.0847   -3.4074   -0.1345 H       1  UNL1        0.0295
     26 H           1.8653   -2.8389   -1.6081 H       1  UNL1        0.0295
     27 H          -0.4565   -0.0211    1.6738 H       1  UNL1        0.0427
     28 H           0.2616    0.5368    0.1597 H       1  UNL1        0.0427
     29 H           0.2054   -1.0357   -1.8635 H       1  UNL1        0.0427
     30 H          -0.5945   -2.5942   -1.6682 H       1  UNL1        0.0427
     31 H          -1.8505    0.1073   -1.0626 H       1  UNL1        0.0430
     32 H          -2.5743   -1.4969   -0.9831 H       1  UNL1        0.0430
     33 H           2.2848   -0.2861   -1.5558 H       1  UNL1        0.1463
     34 H          -2.3637    0.4119    1.4281 H       1  UNL1        0.0326
     35 H          -3.0187   -1.2109    1.4664 H       1  UNL1        0.0326
     36 H           3.8913    1.4089   -2.1572 H       1  UNL1        0.0636
     37 H           4.2484   -0.8020    1.5623 H       1  UNL1        0.0636
     38 H          -3.4294    2.2566    0.2938 H       1  UNL1        0.0620
     39 H          -5.1847   -1.6762    0.4006 H       1  UNL1        0.0620
     40 H           5.8971    2.6984   -1.5423 H       1  UNL1        0.0618
     41 H           6.2197    0.4915    2.1300 H       1  UNL1        0.0618
     42 H          -5.6071    3.2042   -0.3900 H       1  UNL1        0.0618
     43 H          -7.3584   -0.7183   -0.2842 H       1  UNL1        0.0618
     44 H           7.0679    2.2479    0.5979 H       1  UNL1        0.0618
     45 H          -7.5745    1.7211   -0.6809 H       1  UNL1        0.0618
@<TRIPOS>BOND
     1     1     6    1
     2     1     7    1
     3     1     8    1
     4     2     3    1
     5     2    10    1
     6     2    33    1
     7     3     4    1
     8     3     5    1
     9     3    22    1
    10     4     6    1
    11     4    23    1
    12     4    24    1
    13     5     7    1
    14     5    25    1
    15     5    26    1
    16     6    27    1
    17     6    28    1
    18     7    29    1
    19     7    30    1
    20     8     9    1
    21     8    31    1
    22     8    32    1
    23     9    11    1
    24     9    34    1
    25     9    35    1
    26    10    12   ar
    27    10    13   ar
    28    11    14   ar
    29    11    15   ar
    30    12    16   ar
    31    12    36    1
    32    13    17   ar
    33    13    37    1
    34    14    18   ar
    35    14    38    1
    36    15    19   ar
    37    15    39    1
    38    16    20   ar
    39    16    40    1
    40    17    20   ar
    41    17    41    1
    42    18    21   ar
    43    18    42    1
    44    19    21   ar
    45    19    43    1
    46    20    44    1
    47    21    45    1
@<TRIPOS>MOLECULE
13653606
 54 57 0 0 0
SMALL
GASTEIGER

@<TRIPOS>ATOM
      1 O          -2.9820   -2.8179    0.3589 O.2     1  UNL1       -0.2663
      2 O          -5.0886   -1.0495   -1.0869 O.2     1  UNL1       -0.4583
      3 N           2.0029   -0.3937   -0.4307 N.3     1  UNL1       -0.3019
      4 N          -2.1765   -0.6115    0.2135 N.am    1  UNL1       -0.2618
      5 C          -0.7788   -0.9589    0.2789 C.3     1  UNL1        0.0338
      6 C          -0.2205   -1.2347   -1.1170 C.3     1  UNL1       -0.0210
      7 C           0.0309    0.1429    0.9631 C.3     1  UNL1       -0.0210
      8 C           1.2844   -1.5048   -1.0700 C.3     1  UNL1        0.0006
      9 C           1.5273   -0.1737    0.9421 C.3     1  UNL1        0.0006
     10 C           3.4440   -0.6445   -0.4389 C.3     1  UNL1        0.0029
     11 C           4.2129    0.5610    0.1032 C.3     1  UNL1       -0.0149
     12 C          -2.5556    0.7957    0.0960 C.ar    1  UNL1        0.0370
     13 C          -3.2044   -1.6096    0.2608 C.2     1  UNL1        0.2864
     14 C           5.7019    0.3241    0.0794 C.ar    1  UNL1       -0.0462
     15 C          -2.7526    1.4945    1.2491 C.ar    1  UNL1       -0.0403
     16 C          -2.6867    1.3102   -1.1590 C.ar    1  UNL1       -0.0403
     17 C          -4.5863   -1.1296    0.1515 C.ar    1  UNL1        0.1896
     18 C           6.3182   -0.2476    1.1821 C.ar    1  UNL1       -0.0585
     19 C           6.4302    0.6820   -1.0449 C.ar    1  UNL1       -0.0585
     20 C          -3.1155    2.8366    1.1364 C.ar    1  UNL1       -0.0600
     21 C          -3.0495    2.6523   -1.2716 C.ar    1  UNL1       -0.0600
     22 C          -5.4514   -0.7483    1.1105 C.ar    1  UNL1       -0.0113
     23 C          -3.2639    3.4155   -0.1239 C.ar    1  UNL1       -0.0616
     24 C           7.6956   -0.4664    1.1601 C.ar    1  UNL1       -0.0615
     25 C           7.8077    0.4631   -1.0671 C.ar    1  UNL1       -0.0615
     26 C          -6.6279   -0.3875    0.4112 C.ar    1  UNL1       -0.0231
     27 C           8.4404   -0.1112    0.0354 C.ar    1  UNL1       -0.0617
     28 C          -6.3563   -0.5886   -0.9221 C.ar    1  UNL1        0.0928
     29 H          -0.6862   -1.8788    0.8712 H       1  UNL1        0.0505
     30 H          -0.4036   -0.3831   -1.7837 H       1  UNL1        0.0296
     31 H          -0.7329   -2.0941   -1.5664 H       1  UNL1        0.0296
     32 H          -0.2890    0.2623    2.0053 H       1  UNL1        0.0296
     33 H          -0.0897    1.1136    0.4662 H       1  UNL1        0.0296
     34 H           1.6388   -1.6336   -2.1001 H       1  UNL1        0.0427
     35 H           1.4723   -2.4483   -0.5408 H       1  UNL1        0.0427
     36 H           1.7298   -1.0483    1.5742 H       1  UNL1        0.0427
     37 H           2.0062    0.6898    1.4106 H       1  UNL1        0.0427
     38 H           3.7742   -0.8333   -1.4690 H       1  UNL1        0.0430
     39 H           3.6900   -1.5451    0.1403 H       1  UNL1        0.0430
     40 H           3.9742    1.4604   -0.4802 H       1  UNL1        0.0326
     41 H           3.9552    0.7983    1.1402 H       1  UNL1        0.0326
     42 H          -2.6464    1.0442    2.2303 H       1  UNL1        0.0636
     43 H          -2.5304    0.7172   -2.0535 H       1  UNL1        0.0636
     44 H           5.7471   -0.5305    2.0618 H       1  UNL1        0.0620
     45 H           5.9463    1.1281   -1.9091 H       1  UNL1        0.0620
     46 H          -3.2849    3.4301    2.0300 H       1  UNL1        0.0618
     47 H          -3.1677    3.1023   -2.2529 H       1  UNL1        0.0618
     48 H          -5.2868   -0.7226    2.1780 H       1  UNL1        0.0657
     49 H          -3.5477    4.4601   -0.2116 H       1  UNL1        0.0618
     50 H           8.1882   -0.9143    2.0182 H       1  UNL1        0.0618
     51 H           8.3875    0.7392   -1.9429 H       1  UNL1        0.0618
     52 H          -7.5571   -0.0258    0.8269 H       1  UNL1        0.0649
     53 H           9.5128   -0.2820    0.0181 H       1  UNL1        0.0618
     54 H          -6.9275   -0.4574   -1.8295 H       1  UNL1        0.1029
@<TRIPOS>BOND
     1     1    13    2
     2     2    17   ar
     3     2    28   ar
     4     3     8    1
     5     3     9    1
     6     3    10    1
     7     4     5    1
     8     4    12    1
     9     4    13   am
    10     5     6    1
    11     5     7    1
    12     5    29    1
    13     6     8    1
    14     6    30    1
    15     6    31    1
    16     7     9    1
    17     7    32    1
    18     7    33    1
    19     8    34    1
    20     8    35    1
    21     9    36    1
    22     9    37    1
    23    10    11    1
    24    10    38    1
    25    10    39    1
    26    11    14    1
    27    11    40    1
    28    11    41    1
    29    12    15   ar
    30    12    16   ar
    31    13    17    1
    32    14    18   ar
    33    14    19   ar
    34    15    20   ar
    35    15    42    1
    36    16    21   ar
    37    16    43    1
    38    17    22   ar
    39    18    24   ar
    40    18    44    1
    41    19    25   ar
    42    19    45    1
    43    20    23   ar
    44    20    46    1
    45    21    23   ar
    46    21    47    1
    47    22    26   ar
    48    22    48    1
    49    23    49    1
    50    24    27   ar
    51    24    50    1
    52    25    27   ar
    53    25    51    1
    54    26    28   ar
    55    26    52    1
    56    27    53    1
    57    28    54    1
@<TRIPOS>MOLECULE
621174
 56 58 0 0 0
SMALL
GASTEIGER

@<TRIPOS>ATOM
      1 O          -3.4815   -2.7731   -0.1032 O.2     1  UNL1       -0.2752
      2 N           1.5907   -0.0824   -0.4851 N.3     1  UNL1       -0.3019
      3 N          -2.5947   -0.5753   -0.0738 N.am    1  UNL1       -0.2683
      4 C          -1.2031   -0.9152   -0.2361 C.3     1  UNL1        0.0334
      5 C          -0.6425   -0.3140   -1.5247 C.3     1  UNL1       -0.0210
      6 C          -0.3792   -0.4507    0.9652 C.3     1  UNL1       -0.0210
      7 C           0.8577   -0.5825   -1.6563 C.3     1  UNL1        0.0006
      8 C           1.1121   -0.7161    0.7514 C.3     1  UNL1        0.0006
      9 C           3.0276   -0.3017   -0.6491 C.3     1  UNL1        0.0029
     10 C           3.8130    0.3314    0.5001 C.3     1  UNL1       -0.0149
     11 C          -2.9580    0.8354    0.0414 C.ar    1  UNL1        0.0366
     12 C          -3.6344   -1.5518   -0.0203 C.2     1  UNL1        0.2200
     13 C          -5.0459   -0.9837    0.1081 C.3     1  UNL1        0.0242
     14 C           5.2982    0.1319    0.3314 C.ar    1  UNL1       -0.0462
     15 C          -2.9911    1.3788    1.2910 C.ar    1  UNL1       -0.0403
     16 C          -3.2382    1.5114   -1.1087 C.ar    1  UNL1       -0.0403
     17 C          -6.1183   -2.0730    0.1610 C.3     1  UNL1       -0.0476
     18 C           5.8998   -0.9943    0.8726 C.ar    1  UNL1       -0.0585
     19 C           6.0379    1.0776   -0.3625 C.ar    1  UNL1       -0.0585
     20 C          -3.3375    2.7254    1.4011 C.ar    1  UNL1       -0.0600
     21 C          -3.5844    2.8581   -0.9984 C.ar    1  UNL1       -0.0600
     22 C          -7.5087   -1.4791    0.3200 C.3     1  UNL1       -0.0648
     23 C          -3.6340    3.4651    0.2565 C.ar    1  UNL1       -0.0616
     24 C           7.2735   -1.1792    0.7165 C.ar    1  UNL1       -0.0615
     25 C           7.4117    0.8926   -0.5187 C.ar    1  UNL1       -0.0615
     26 C           8.0293   -0.2358    0.0207 C.ar    1  UNL1       -0.0617
     27 H          -1.1198   -2.0074   -0.3048 H       1  UNL1        0.0505
     28 H          -0.7730    0.7734   -1.5556 H       1  UNL1        0.0296
     29 H          -1.1691   -0.7235   -2.3952 H       1  UNL1        0.0296
     30 H          -0.7194   -0.9586    1.8759 H       1  UNL1        0.0296
     31 H          -0.4898    0.6252    1.1404 H       1  UNL1        0.0296
     32 H           1.0277   -1.6585   -1.7940 H       1  UNL1        0.0427
     33 H           1.2157   -0.0787   -2.5626 H       1  UNL1        0.0427
     34 H           1.6019   -0.3086    1.6393 H       1  UNL1        0.0427
     35 H           1.2976   -1.7981    0.7376 H       1  UNL1        0.0427
     36 H           3.3597    0.1552   -1.5908 H       1  UNL1        0.0430
     37 H           3.2564   -1.3737   -0.7218 H       1  UNL1        0.0430
     38 H           3.5541   -0.0917    1.4758 H       1  UNL1        0.0326
     39 H           3.5918    1.4049    0.5687 H       1  UNL1        0.0326
     40 H          -5.2541   -0.3390   -0.7519 H       1  UNL1        0.0358
     41 H          -5.1128   -0.3932    1.0277 H       1  UNL1        0.0358
     42 H          -2.7736    0.8037    2.1848 H       1  UNL1        0.0636
     43 H          -3.2132    1.0400   -2.0855 H       1  UNL1        0.0636
     44 H          -5.9200   -2.7536    0.9976 H       1  UNL1        0.0267
     45 H          -6.0849   -2.6756   -0.7546 H       1  UNL1        0.0267
     46 H           5.3198   -1.7366    1.4138 H       1  UNL1        0.0620
     47 H           5.5657    1.9585   -0.7879 H       1  UNL1        0.0620
     48 H          -3.3792    3.1972    2.3785 H       1  UNL1        0.0618
     49 H          -3.8185    3.4333   -1.8895 H       1  UNL1        0.0618
     50 H          -7.5850   -0.9008    1.2463 H       1  UNL1        0.0230
     51 H          -8.2592   -2.2751    0.3539 H       1  UNL1        0.0230
     52 H          -7.7514   -0.8188   -0.5187 H       1  UNL1        0.0230
     53 H          -3.9051    4.5133    0.3423 H       1  UNL1        0.0618
     54 H           7.7544   -2.0581    1.1357 H       1  UNL1        0.0618
     55 H           8.0005    1.6268   -1.0609 H       1  UNL1        0.0618
     56 H           9.0989   -0.3799   -0.1013 H       1  UNL1        0.0618
@<TRIPOS>BOND
     1     1    12    2
     2     2     7    1
     3     2     8    1
     4     2     9    1
     5     3     4    1
     6     3    11    1
     7     3    12   am
     8     4     5    1
     9     4     6    1
    10     4    27    1
    11     5     7    1
    12     5    28    1
    13     5    29    1
    14     6     8    1
    15     6    30    1
    16     6    31    1
    17     7    32    1
    18     7    33    1
    19     8    34    1
    20     8    35    1
    21     9    10    1
    22     9    36    1
    23     9    37    1
    24    10    14    1
    25    10    38    1
    26    10    39    1
    27    11    15   ar
    28    11    16   ar
    29    12    13    1
    30    13    17    1
    31    13    40    1
    32    13    41    1
    33    14    18   ar
    34    14    19   ar
    35    15    20   ar
    36    15    42    1
    37    16    21   ar
    38    16    43    1
    39    17    22    1
    40    17    44    1
    41    17    45    1
    42    18    24   ar
    43    18    46    1
    44    19    25   ar
    45    19    47    1
    46    20    23   ar
    47    20    48    1
    48    21    23   ar
    49    21    49    1
    50    22    50    1
    51    22    51    1
    52    22    52    1
    53    23    53    1
    54    24    26   ar
    55    24    54    1
    56    25    26   ar
    57    25    55    1
    58    26    56    1
@<TRIPOS>MOLECULE
91825762
 54 57 0 0 0
SMALL
GASTEIGER

@<TRIPOS>ATOM
      1 F          -6.1566   -3.5040   -0.1498 F       1  UNL1       -0.2055
      2 O          -1.4198    2.2225    1.1766 O.2     1  UNL1       -0.2663
      3 O          -4.0555    1.5002   -0.9406 O.2     1  UNL1       -0.4583
      4 N           2.3220    0.1292   -0.2298 N.3     1  UNL1       -0.3019
      5 N          -1.8876    0.0885    0.2254 N.am    1  UNL1       -0.2618
      6 C          -0.5510   -0.3873   -0.0309 C.3     1  UNL1        0.0338
      7 C           0.0665    0.3406   -1.2246 C.3     1  UNL1       -0.0210
      8 C           0.3370   -0.2255    1.2031 C.3     1  UNL1       -0.0210
      9 C           1.5200   -0.0835   -1.4426 C.3     1  UNL1        0.0006
     10 C           1.7812   -0.6320    0.9048 C.3     1  UNL1        0.0006
     11 C           3.7186   -0.2336   -0.4701 C.3     1  UNL1        0.0029
     12 C           4.6515    0.5215    0.4772 C.3     1  UNL1       -0.0149
     13 C          -3.0046   -0.8512    0.1274 C.ar    1  UNL1        0.0371
     14 C          -2.1553    1.4442    0.5709 C.2     1  UNL1        0.2864
     15 C           6.0969    0.1731    0.2252 C.ar    1  UNL1       -0.0462
     16 C          -3.2619   -1.5053   -1.0775 C.ar    1  UNL1       -0.0375
     17 C          -3.8121   -1.0934    1.2387 C.ar    1  UNL1       -0.0375
     18 C          -3.4657    1.9970    0.1784 C.ar    1  UNL1        0.1896
     19 C           6.6868   -0.8916    0.9064 C.ar    1  UNL1       -0.0585
     20 C           6.8437    0.9156   -0.6892 C.ar    1  UNL1       -0.0585
     21 C          -4.3263   -2.4017   -1.1709 C.ar    1  UNL1       -0.0247
     22 C          -4.8766   -1.9898    1.1453 C.ar    1  UNL1       -0.0247
     23 C          -4.2550    2.9675    0.7505 C.ar    1  UNL1       -0.0113
     24 C          -5.1337   -2.6440   -0.0595 C.ar    1  UNL1        0.1235
     25 C           8.0239   -1.2137    0.6732 C.ar    1  UNL1       -0.0615
     26 C           8.1806    0.5935   -0.9225 C.ar    1  UNL1       -0.0615
     27 C          -5.4037    3.0737   -0.0694 C.ar    1  UNL1       -0.0231
     28 C           8.7707   -0.4711   -0.2412 C.ar    1  UNL1       -0.0617
     29 C          -5.2343    2.1607   -1.0844 C.ar    1  UNL1        0.0928
     30 H          -0.5942   -1.4591   -0.2685 H       1  UNL1        0.0505
     31 H           0.0343    1.4281   -1.0777 H       1  UNL1        0.0296
     32 H          -0.5138    0.1363   -2.1326 H       1  UNL1        0.0296
     33 H           0.3560    0.8052    1.5689 H       1  UNL1        0.0296
     34 H          -0.0541   -0.8368    2.0259 H       1  UNL1        0.0296
     35 H           1.5557   -1.1357   -1.7546 H       1  UNL1        0.0427
     36 H           1.9233    0.5155   -2.2683 H       1  UNL1        0.0427
     37 H           2.3689   -0.4503    1.8112 H       1  UNL1        0.0427
     38 H           1.8207   -1.7114    0.7064 H       1  UNL1        0.0427
     39 H           3.8724   -1.3192   -0.4037 H       1  UNL1        0.0430
     40 H           4.0047    0.0459   -1.4938 H       1  UNL1        0.0430
     41 H           4.4189    0.3046    1.5266 H       1  UNL1        0.0326
     42 H           4.5137    1.6049    0.3613 H       1  UNL1        0.0326
     43 H          -2.6456   -1.3223   -1.9535 H       1  UNL1        0.0637
     44 H          -3.6191   -0.5953    2.1853 H       1  UNL1        0.0637
     45 H           6.1145   -1.4789    1.6196 H       1  UNL1        0.0620
     46 H           6.3947    1.7461   -1.2275 H       1  UNL1        0.0620
     47 H          -4.5279   -2.9099   -2.1092 H       1  UNL1        0.0647
     48 H          -5.5048   -2.1794    2.0106 H       1  UNL1        0.0647
     49 H          -4.0352    3.5295    1.6470 H       1  UNL1        0.0657
     50 H           8.4832   -2.0430    1.2031 H       1  UNL1        0.0618
     51 H           8.7622    1.1713   -1.6349 H       1  UNL1        0.0618
     52 H          -6.2495    3.7326    0.0629 H       1  UNL1        0.0649
     53 H           9.8117   -0.7219   -0.4230 H       1  UNL1        0.0618
     54 H          -5.8287    1.8742   -1.9395 H       1  UNL1        0.1029
@<TRIPOS>BOND
     1     1    24    1
     2     2    14    2
     3     3    18   ar
     4     3    29   ar
     5     4     9    1
     6     4    10    1
     7     4    11    1
     8     5     6    1
     9     5    13    1
    10     5    14   am
    11     6     7    1
    12     6     8    1
    13     6    30    1
    14     7     9    1
    15     7    31    1
    16     7    32    1
    17     8    10    1
    18     8    33    1
    19     8    34    1
    20     9    35    1
    21     9    36    1
    22    10    37    1
    23    10    38    1
    24    11    12    1
    25    11    39    1
    26    11    40    1
    27    12    15    1
    28    12    41    1
    29    12    42    1
    30    13    16   ar
    31    13    17   ar
    32    14    18    1
    33    15    19   ar
    34    15    20   ar
    35    16    21   ar
    36    16    43    1
    37    17    22   ar
    38    17    44    1
    39    18    23   ar
    40    19    25   ar
    41    19    45    1
    42    20    26   ar
    43    20    46    1
    44    21    24   ar
    45    21    47    1
    46    22    24   ar
    47    22    48    1
    48    23    27   ar
    49    23    49    1
    50    25    28   ar
    51    25    50    1
    52    26    28   ar
    53    26    51    1
    54    27    29   ar
    55    27    52    1
    56    28    53    1
    57    29    54    1
@<TRIPOS>MOLECULE
44371939
 54 56 0 0 0
SMALL
GASTEIGER

@<TRIPOS>ATOM
      1 O          -4.1189    1.7063    0.2478 O.3     1  UNL1       -0.4503
      2 O          -1.9522    2.3795    0.1195 O.2     1  UNL1       -0.2259
      3 N           1.7198    0.1022   -0.3441 N.3     1  UNL1       -0.3019
      4 N          -2.5042    0.0751   -0.0502 N.am    1  UNL1       -0.2342
      5 C          -1.1555   -0.4157   -0.1866 C.3     1  UNL1        0.0366
      6 C          -0.3183   -0.0749    1.0466 C.3     1  UNL1       -0.0209
      7 C          -0.4956    0.1480   -1.4447 C.3     1  UNL1       -0.0209
      8 C           1.1391   -0.5017    0.8632 C.3     1  UNL1        0.0006
      9 C           0.9681   -0.2849   -1.5459 C.3     1  UNL1        0.0006
     10 C           3.1271   -0.2738   -0.4779 C.3     1  UNL1        0.0029
     11 C           4.0168    0.6155    0.3912 C.3     1  UNL1       -0.0149
     12 C          -3.6140   -0.8719   -0.0595 C.ar    1  UNL1        0.0397
     13 C          -2.7751    1.4673    0.0936 C.2     1  UNL1        0.4074
     14 C           5.4732    0.2527    0.2457 C.ar    1  UNL1       -0.0462
     15 C          -4.6053   -0.7745   -1.0360 C.ar    1  UNL1       -0.0402
     16 C          -3.6846   -1.8738    0.9086 C.ar    1  UNL1       -0.0402
     17 C           6.0421   -0.7009    1.0899 C.ar    1  UNL1       -0.0585
     18 C           6.2515    0.8708   -0.7331 C.ar    1  UNL1       -0.0585
     19 C          -5.6673   -1.6791   -1.0446 C.ar    1  UNL1       -0.0600
     20 C          -4.7465   -2.7784    0.9000 C.ar    1  UNL1       -0.0600
     21 C          -5.7377   -2.6811   -0.0768 C.ar    1  UNL1       -0.0616
     22 C          -4.5066    3.0723    0.4397 C.3     1  UNL1        0.0913
     23 C           7.3893   -1.0367    0.9551 C.ar    1  UNL1       -0.0615
     24 C           7.5987    0.5352   -0.8677 C.ar    1  UNL1       -0.0615
     25 C           8.1675   -0.4188   -0.0237 C.ar    1  UNL1       -0.0617
     26 C          -6.0114    3.1414    0.5898 C.3     1  UNL1       -0.0305
     27 H          -1.1845   -1.5093   -0.2893 H       1  UNL1        0.0506
     28 H          -0.7347   -0.5746    1.9299 H       1  UNL1        0.0296
     29 H          -0.3352    0.9977    1.2690 H       1  UNL1        0.0296
     30 H          -0.5308    1.2426   -1.4703 H       1  UNL1        0.0296
     31 H          -1.0392   -0.1945   -2.3342 H       1  UNL1        0.0296
     32 H           1.6889   -0.1897    1.7578 H       1  UNL1        0.0427
     33 H           1.1933   -1.5977    0.8174 H       1  UNL1        0.0427
     34 H           1.0228   -1.3696   -1.7074 H       1  UNL1        0.0427
     35 H           1.4004    0.1985   -2.4307 H       1  UNL1        0.0427
     36 H           3.4520   -0.1346   -1.5186 H       1  UNL1        0.0430
     37 H           3.2849   -1.3379   -0.2564 H       1  UNL1        0.0430
     38 H           3.7440    0.5426    1.4507 H       1  UNL1        0.0326
     39 H           3.8769    1.6709    0.1214 H       1  UNL1        0.0326
     40 H          -4.5579   -0.0092   -1.8064 H       1  UNL1        0.0636
     41 H          -2.9230   -1.9588    1.6789 H       1  UNL1        0.0636
     42 H           5.4454   -1.1908    1.8548 H       1  UNL1        0.0620
     43 H           5.8193    1.6140   -1.3979 H       1  UNL1        0.0620
     44 H          -6.4375   -1.6053   -1.8068 H       1  UNL1        0.0618
     45 H          -4.8022   -3.5578    1.6543 H       1  UNL1        0.0618
     46 H          -6.5642   -3.3857   -0.0837 H       1  UNL1        0.0618
     47 H          -4.1938    3.6649   -0.4271 H       1  UNL1        0.0695
     48 H          -4.0262    3.4640    1.3431 H       1  UNL1        0.0695
     49 H           7.8322   -1.7797    1.6119 H       1  UNL1        0.0618
     50 H           8.2048    1.0159   -1.6300 H       1  UNL1        0.0618
     51 H           9.2163   -0.6804   -0.1288 H       1  UNL1        0.0618
     52 H          -6.3431    4.1727    0.7379 H       1  UNL1        0.0262
     53 H          -6.3415    2.5374    1.4415 H       1  UNL1        0.0262
     54 H          -6.5058    2.7344   -0.2984 H       1  UNL1        0.0262
@<TRIPOS>BOND
     1     1    13    1
     2     1    22    1
     3     2    13    2
     4     3     8    1
     5     3     9    1
     6     3    10    1
     7     4     5    1
     8     4    12    1
     9     4    13   am
    10     5     6    1
    11     5     7    1
    12     5    27    1
    13     6     8    1
    14     6    28    1
    15     6    29    1
    16     7     9    1
    17     7    30    1
    18     7    31    1
    19     8    32    1
    20     8    33    1
    21     9    34    1
    22     9    35    1
    23    10    11    1
    24    10    36    1
    25    10    37    1
    26    11    14    1
    27    11    38    1
    28    11    39    1
    29    12    15   ar
    30    12    16   ar
    31    14    17   ar
    32    14    18   ar
    33    15    19   ar
    34    15    40    1
    35    16    20   ar
    36    16    41    1
    37    17    23   ar
    38    17    42    1
    39    18    24   ar
    40    18    43    1
    41    19    21   ar
    42    19    44    1
    43    20    21   ar
    44    20    45    1
    45    21    46    1
    46    22    26    1
    47    22    47    1
    48    22    48    1
    49    23    25   ar
    50    23    49    1
    51    24    25   ar
    52    24    50    1
    53    25    51    1
    54    26    52    1
    55    26    53    1
    56    26    54    1
@<TRIPOS>MOLECULE
56672265
 59 61 0 0 0
SMALL
GASTEIGER

@<TRIPOS>ATOM
      1 O          -1.5616    1.5696    1.5537 O.2     1  UNL1       -0.2752
      2 O          -3.9705    2.2134   -1.8825 O.3     1  UNL1       -0.4806
      3 O          -6.0390    2.3802   -0.9556 O.2     1  UNL1       -0.2510
      4 N           2.1918    0.0497   -0.1372 N.3     1  UNL1       -0.3019
      5 N          -1.9830   -0.4405    0.3729 N.am    1  UNL1       -0.2683
      6 C          -0.6268   -0.7269   -0.0236 C.3     1  UNL1        0.0334
      7 C          -0.1102    0.3299   -0.9996 C.3     1  UNL1       -0.0210
      8 C           0.2949   -0.8175    1.1929 C.3     1  UNL1       -0.0210
      9 C           1.3603    0.0927   -1.3480 C.3     1  UNL1        0.0006
     10 C           1.7518   -1.0178    0.7717 C.3     1  UNL1        0.0006
     11 C           3.6003   -0.1272   -0.4902 C.3     1  UNL1        0.0029
     12 C           4.5130    0.4308    0.6023 C.3     1  UNL1       -0.0149
     13 C          -3.0032   -1.4297    0.0400 C.ar    1  UNL1        0.0366
     14 C          -2.3407    0.7065    1.1430 C.2     1  UNL1        0.2200
     15 C          -3.8363    0.8479    1.4295 C.3     1  UNL1        0.0250
     16 C           5.9687    0.2746    0.2408 C.ar    1  UNL1       -0.0462
     17 C          -3.6842   -2.0985    1.0571 C.ar    1  UNL1       -0.0403
     18 C          -3.2969   -1.7066   -1.2951 C.ar    1  UNL1       -0.0403
     19 C          -4.3125    2.2981    1.5744 C.3     1  UNL1       -0.0347
     20 C           6.6596   -0.8791    0.6114 C.ar    1  UNL1       -0.0585
     21 C           6.6241    1.2839   -0.4642 C.ar    1  UNL1       -0.0585
     22 C          -4.1267    3.1378    0.3111 C.3     1  UNL1        0.0452
     23 C          -4.6591   -3.0442    0.7391 C.ar    1  UNL1       -0.0600
     24 C          -4.2717   -2.6521   -1.6132 C.ar    1  UNL1       -0.0600
     25 C          -4.9527   -3.3211   -0.5961 C.ar    1  UNL1       -0.0616
     26 C           8.0062   -1.0233    0.2769 C.ar    1  UNL1       -0.0615
     27 C           7.9705    1.1397   -0.7987 C.ar    1  UNL1       -0.0615
     28 C           8.6616   -0.0139   -0.4280 C.ar    1  UNL1       -0.0617
     29 C          -4.8280    2.5439   -0.8851 C.2     1  UNL1        0.3047
     30 H          -0.5992   -1.7008   -0.5319 H       1  UNL1        0.0505
     31 H          -0.2135    1.3393   -0.5832 H       1  UNL1        0.0296
     32 H          -0.7085    0.3172   -1.9188 H       1  UNL1        0.0296
     33 H          -0.0179   -1.6517    1.8334 H       1  UNL1        0.0296
     34 H           0.2465    0.0802    1.8174 H       1  UNL1        0.0296
     35 H           1.6871    0.9136   -1.9981 H       1  UNL1        0.0427
     36 H           1.4591   -0.8379   -1.9225 H       1  UNL1        0.0427
     37 H           1.8608   -2.0034    0.2995 H       1  UNL1        0.0427
     38 H           2.3598   -1.0290    1.6828 H       1  UNL1        0.0427
     39 H           3.8340   -1.1777   -0.7103 H       1  UNL1        0.0430
     40 H           3.8254    0.4276   -1.4118 H       1  UNL1        0.0430
     41 H           4.3378   -0.0662    1.5639 H       1  UNL1        0.0326
     42 H           4.2935    1.4931    0.7737 H       1  UNL1        0.0326
     43 H          -4.0381    0.3332    2.3758 H       1  UNL1        0.0359
     44 H          -4.4545    0.3962    0.6518 H       1  UNL1        0.0359
     45 H          -3.4482   -1.9188    2.1026 H       1  UNL1        0.0636
     46 H          -2.7789   -1.1889   -2.0978 H       1  UNL1        0.0636
     47 H          -3.7799    2.7830    2.4012 H       1  UNL1        0.0275
     48 H          -5.3752    2.2866    1.8471 H       1  UNL1        0.0275
     49 H          -4.5251    4.1474    0.4624 H       1  UNL1        0.0378
     50 H          -3.0619    3.2591    0.0829 H       1  UNL1        0.0378
     51 H           6.1592   -1.6734    1.1590 H       1  UNL1        0.0620
     52 H           6.0960    2.1865   -0.7601 H       1  UNL1        0.0620
     53 H          -5.1846   -3.5699    1.5309 H       1  UNL1        0.0618
     54 H          -4.5013   -2.8668   -2.6528 H       1  UNL1        0.0618
     55 H          -5.7109   -4.0582   -0.8438 H       1  UNL1        0.0618
     56 H           8.5442   -1.9217    0.5650 H       1  UNL1        0.0618
     57 H           8.4809    1.9254   -1.3481 H       1  UNL1        0.0618
     58 H           9.7099   -0.1262   -0.6886 H       1  UNL1        0.0618
     59 H          -4.4373    1.8263   -2.6536 H       1  UNL1        0.2951
@<TRIPOS>BOND
     1     1    14    2
     2     2    29    1
     3     2    59    1
     4     3    29    2
     5     4     9    1
     6     4    10    1
     7     4    11    1
     8     5     6    1
     9     5    13    1
    10     5    14   am
    11     6     7    1
    12     6     8    1
    13     6    30    1
    14     7     9    1
    15     7    31    1
    16     7    32    1
    17     8    10    1
    18     8    33    1
    19     8    34    1
    20     9    35    1
    21     9    36    1
    22    10    37    1
    23    10    38    1
    24    11    12    1
    25    11    39    1
    26    11    40    1
    27    12    16    1
    28    12    41    1
    29    12    42    1
    30    13    17   ar
    31    13    18   ar
    32    14    15    1
    33    15    19    1
    34    15    43    1
    35    15    44    1
    36    16    20   ar
    37    16    21   ar
    38    17    23   ar
    39    17    45    1
    40    18    24   ar
    41    18    46    1
    42    19    22    1
    43    19    47    1
    44    19    48    1
    45    20    26   ar
    46    20    51    1
    47    21    27   ar
    48    21    52    1
    49    22    29    1
    50    22    49    1
    51    22    50    1
    52    23    25   ar
    53    23    53    1
    54    24    25   ar
    55    24    54    1
    56    25    55    1
    57    26    28   ar
    58    26    56    1
    59    27    28   ar
    60    27    57    1
    61    28    58    1
@<TRIPOS>MOLECULE
240
 14 14 0 0 0
SMALL
GASTEIGER

@<TRIPOS>ATOM
      1 O           2.8466   -0.3870    0.0002 O.2     1  UNL1       -0.2957
      2 C           0.5644    0.2371    0.0000 C.ar    1  UNL1        0.0142
      3 C          -0.3437    1.2960    0.0000 C.ar    1  UNL1       -0.0515
      4 C           0.1013   -1.0787    0.0000 C.ar    1  UNL1       -0.0515
      5 C          -1.7147    1.0393    0.0001 C.ar    1  UNL1       -0.0611
      6 C          -1.2698   -1.3354   -0.0001 C.ar    1  UNL1       -0.0611
      7 C          -2.1777   -0.2764    0.0000 C.ar    1  UNL1       -0.0617
      8 C           1.9937    0.5050   -0.0003 C.2     1  UNL1        0.1502
      9 H           0.0016    2.3267    0.0000 H       1  UNL1        0.0624
     10 H           0.7902   -1.9194   -0.0001 H       1  UNL1        0.0624
     11 H          -2.4218    1.8637    0.0001 H       1  UNL1        0.0618
     12 H          -1.6308   -2.3599   -0.0001 H       1  UNL1        0.0618
     13 H          -3.2452   -0.4764    0.0000 H       1  UNL1        0.0618
     14 H           2.2986    1.5653   -0.0006 H       1  UNL1        0.1081
@<TRIPOS>BOND
     1     1     8    2
     2     2     3   ar
     3     2     4   ar
     4     2     8    1
     5     3     5   ar
     6     3     9    1
     7     4     6   ar
     8     4    10    1
     9     5     7   ar
    10     5    11    1
    11     6     7   ar
    12     6    12    1
    13     7    13    1
    14     8    14    1
@<TRIPOS>MOLECULE
252141
 50 52 0 0 0
SMALL
GASTEIGER

@<TRIPOS>ATOM
      1 O          -3.3318    2.7749   -0.4796 O.2     1  UNL1       -0.2753
      2 N           1.7965    0.6237    0.9981 N.3     1  UNL1       -0.2980
      3 N          -2.3039    0.6812   -0.0570 N.am    1  UNL1       -0.2683
      4 C          -0.9785    1.1626    0.2435 C.3     1  UNL1        0.0334
      5 C           0.0455    0.6115   -0.7492 C.3     1  UNL1       -0.0210
      6 C          -0.5776    0.7974    1.6725 C.3     1  UNL1       -0.0210
      7 C           1.4665    1.0353   -0.3734 C.3     1  UNL1        0.0009
      8 C           0.8642    1.2138    1.9686 C.3     1  UNL1        0.0009
      9 C           3.1745    0.9903    1.3246 C.3     1  UNL1        0.0240
     10 C          -2.5496   -0.7585   -0.0089 C.ar    1  UNL1        0.0366
     11 C          -3.3872    1.5451   -0.3992 C.2     1  UNL1        0.2198
     12 C           4.1639    0.3342    0.3984 C.ar    1  UNL1       -0.0334
     13 C          -4.7212    0.8426   -0.6349 C.3     1  UNL1        0.0217
     14 C          -2.3584   -1.4701   -1.1557 C.ar    1  UNL1       -0.0403
     15 C          -2.9523   -1.2911    1.1795 C.ar    1  UNL1       -0.0403
     16 C           4.6865   -0.9089    0.7267 C.ar    1  UNL1       -0.0573
     17 C           4.5389    0.9815   -0.7706 C.ar    1  UNL1       -0.0573
     18 C          -5.8367    1.8062   -1.0106 C.3     1  UNL1       -0.0570
     19 C          -2.5924   -2.8445   -1.1099 C.ar    1  UNL1       -0.0600
     20 C          -3.1862   -2.6655    1.2252 C.ar    1  UNL1       -0.0600
     21 C           5.6030   -1.5169   -0.1312 C.ar    1  UNL1       -0.0615
     22 C           5.4554    0.3733   -1.6285 C.ar    1  UNL1       -0.0615
     23 C          -3.0063   -3.4421    0.0804 C.ar    1  UNL1       -0.0616
     24 C           5.9873   -0.8760   -1.3088 C.ar    1  UNL1       -0.0617
     25 H          -0.9806    2.2568    0.1588 H       1  UNL1        0.0505
     26 H          -0.1883    0.9559   -1.7641 H       1  UNL1        0.0296
     27 H           0.0353   -0.4839   -0.7744 H       1  UNL1        0.0296
     28 H          -0.6372   -0.2824    1.8475 H       1  UNL1        0.0296
     29 H          -1.2552    1.2748    2.3907 H       1  UNL1        0.0296
     30 H           2.0998    0.5392   -1.1132 H       1  UNL1        0.0427
     31 H           1.5742    2.1203   -0.5014 H       1  UNL1        0.0427
     32 H           0.9380    2.3094    1.9657 H       1  UNL1        0.0427
     33 H           1.1165    0.8739    2.9806 H       1  UNL1        0.0427
     34 H           3.4085    0.6846    2.3533 H       1  UNL1        0.0476
     35 H           3.3153    2.0802    1.3013 H       1  UNL1        0.0476
     36 H          -4.6161    0.1209   -1.4505 H       1  UNL1        0.0356
     37 H          -5.0222    0.3182    0.2772 H       1  UNL1        0.0356
     38 H          -2.0489   -1.0071   -2.0867 H       1  UNL1        0.0636
     39 H          -3.1058   -0.6889    2.0687 H       1  UNL1        0.0636
     40 H           4.3925   -1.4181    1.6402 H       1  UNL1        0.0621
     41 H           4.1462    1.9617   -1.0259 H       1  UNL1        0.0621
     42 H          -6.0062    2.5411   -0.2167 H       1  UNL1        0.0234
     43 H          -6.7712    1.2608   -1.1755 H       1  UNL1        0.0234
     44 H          -5.5930    2.3516   -1.9283 H       1  UNL1        0.0234
     45 H          -2.4553   -3.4487   -2.0019 H       1  UNL1        0.0618
     46 H          -3.5116   -3.1304    2.1513 H       1  UNL1        0.0618
     47 H           6.0169   -2.4897    0.1174 H       1  UNL1        0.0618
     48 H           5.7575    0.8740   -2.5438 H       1  UNL1        0.0618
     49 H          -3.1899   -4.5119    0.1158 H       1  UNL1        0.0618
     50 H           6.7013   -1.3491   -1.9766 H       1  UNL1        0.0618
@<TRIPOS>BOND
     1     1    11    2
     2     2     7    1
     3     2     8    1
     4     2     9    1
     5     3     4    1
     6     3    10    1
     7     3    11   am
     8     4     5    1
     9     4     6    1
    10     4    25    1
    11     5     7    1
    12     5    26    1
    13     5    27    1
    14     6     8    1
    15     6    28    1
    16     6    29    1
    17     7    30    1
    18     7    31    1
    19     8    32    1
    20     8    33    1
    21     9    12    1
    22     9    34    1
    23     9    35    1
    24    10    14   ar
    25    10    15   ar
    26    11    13    1
    27    12    16   ar
    28    12    17   ar
    29    13    18    1
    30    13    36    1
    31    13    37    1
    32    14    19   ar
    33    14    38    1
    34    15    20   ar
    35    15    39    1
    36    16    21   ar
    37    16    40    1
    38    17    22   ar
    39    17    41    1
    40    18    42    1
    41    18    43    1
    42    18    44    1
    43    19    23   ar
    44    19    45    1
    45    20    23   ar
    46    20    46    1
    47    21    24   ar
    48    21    47    1
    49    22    24   ar
    50    22    48    1
    51    23    49    1
    52    24    50    1
@<TRIPOS>MOLECULE
42853213
 51 54 0 0 0
SMALL
GASTEIGER

@<TRIPOS>ATOM
      1 O          -0.7959   -1.9758   -0.8359 O.2     1  UNL1       -0.2663
      2 O          -3.7149   -1.3153    0.8948 O.2     1  UNL1       -0.4583
      3 N           2.5828    0.5255    0.8037 N.3     1  UNL1       -0.2980
      4 N          -1.5321    0.1786   -0.1328 N.am    1  UNL1       -0.2618
      5 C          -0.2753    0.7830    0.2328 C.3     1  UNL1        0.0338
      6 C           0.7653    0.6010   -0.8727 C.3     1  UNL1       -0.0210
      7 C           0.2452    0.2038    1.5479 C.3     1  UNL1       -0.0210
      8 C           2.1286    1.1488   -0.4471 C.3     1  UNL1        0.0009
      9 C           1.6262    0.7635    1.8936 C.3     1  UNL1        0.0009
     10 C           3.9093    1.0214    1.1702 C.3     1  UNL1        0.0240
     11 C          -2.7192    1.0264   -0.2451 C.ar    1  UNL1        0.0370
     12 C          -1.6550   -1.2172   -0.3882 C.2     1  UNL1        0.2864
     13 C           4.9997    0.3319    0.3940 C.ar    1  UNL1       -0.0334
     14 C          -3.4020    1.1139   -1.4582 C.ar    1  UNL1       -0.0403
     15 C          -3.1682    1.7472    0.8615 C.ar    1  UNL1       -0.0403
     16 C          -2.9587   -1.8458   -0.1021 C.ar    1  UNL1        0.1896
     17 C           5.5829   -0.8323    0.8942 C.ar    1  UNL1       -0.0573
     18 C           5.4265    0.8573   -0.8257 C.ar    1  UNL1       -0.0573
     19 C          -4.5339    1.9222   -1.5647 C.ar    1  UNL1       -0.0600
     20 C          -4.3000    2.5553    0.7551 C.ar    1  UNL1       -0.0600
     21 C           6.5928   -1.4711    0.1746 C.ar    1  UNL1       -0.0615
     22 C           6.4362    0.2184   -1.5453 C.ar    1  UNL1       -0.0615
     23 C          -3.5990   -2.9202   -0.6747 C.ar    1  UNL1       -0.0113
     24 C          -4.9830    2.6429   -0.4580 C.ar    1  UNL1       -0.0616
     25 C           7.0194   -0.9458   -1.0452 C.ar    1  UNL1       -0.0617
     26 C          -4.8275   -3.0586    0.0143 C.ar    1  UNL1       -0.0231
     27 C          -4.8502   -2.0590    0.9591 C.ar    1  UNL1        0.0928
     28 H          -0.4260    1.8626    0.3700 H       1  UNL1        0.0505
     29 H           0.4324    1.1117   -1.7849 H       1  UNL1        0.0296
     30 H           0.9042   -0.4499   -1.1427 H       1  UNL1        0.0296
     31 H          -0.4543    0.4285    2.3623 H       1  UNL1        0.0296
     32 H           0.3115   -0.8907    1.4931 H       1  UNL1        0.0296
     33 H           2.0691    2.2405   -0.3451 H       1  UNL1        0.0427
     34 H           2.8156    0.9339   -1.2702 H       1  UNL1        0.0427
     35 H           1.9705    0.2661    2.8087 H       1  UNL1        0.0427
     36 H           1.5459    1.8359    2.1151 H       1  UNL1        0.0427
     37 H           4.1072    0.8321    2.2348 H       1  UNL1        0.0476
     38 H           3.9868    2.1120    1.0603 H       1  UNL1        0.0476
     39 H          -3.0596    0.5626   -2.3301 H       1  UNL1        0.0636
     40 H          -2.6506    1.6844    1.8148 H       1  UNL1        0.0636
     41 H           5.2583   -1.2537    1.8419 H       1  UNL1        0.0621
     42 H           4.9960    1.7731   -1.2215 H       1  UNL1        0.0621
     43 H          -5.0650    1.9912   -2.5096 H       1  UNL1        0.0618
     44 H          -4.6506    3.1152    1.6171 H       1  UNL1        0.0618
     45 H           7.0466   -2.3778    0.5637 H       1  UNL1        0.0618
     46 H           6.7713    0.6296   -2.4931 H       1  UNL1        0.0618
     47 H          -3.2313   -3.5295   -1.4881 H       1  UNL1        0.0657
     48 H          -5.8644    3.2720   -0.5408 H       1  UNL1        0.0618
     49 H           7.8062   -1.4428   -1.6051 H       1  UNL1        0.0618
     50 H          -5.6000   -3.7942   -0.1566 H       1  UNL1        0.0649
     51 H          -5.5634   -1.7582    1.7125 H       1  UNL1        0.1029
@<TRIPOS>BOND
     1     1    12    2
     2     2    16   ar
     3     2    27   ar
     4     3     8    1
     5     3     9    1
     6     3    10    1
     7     4     5    1
     8     4    11    1
     9     4    12   am
    10     5     6    1
    11     5     7    1
    12     5    28    1
    13     6     8    1
    14     6    29    1
    15     6    30    1
    16     7     9    1
    17     7    31    1
    18     7    32    1
    19     8    33    1
    20     8    34    1
    21     9    35    1
    22     9    36    1
    23    10    13    1
    24    10    37    1
    25    10    38    1
    26    11    14   ar
    27    11    15   ar
    28    12    16    1
    29    13    17   ar
    30    13    18   ar
    31    14    19   ar
    32    14    39    1
    33    15    20   ar
    34    15    40    1
    35    16    23   ar
    36    17    21   ar
    37    17    41    1
    38    18    22   ar
    39    18    42    1
    40    19    24   ar
    41    19    43    1
    42    20    24   ar
    43    20    44    1
    44    21    25   ar
    45    21    45    1
    46    22    25   ar
    47    22    46    1
    48    23    26   ar
    49    23    47    1
    50    24    48    1
    51    25    49    1
    52    26    27   ar
    53    26    50    1
    54    27    51    1
@<TRIPOS>MOLECULE
154572819
 51 54 0 0 0
SMALL
GASTEIGER

@<TRIPOS>ATOM
      1 F          -6.5289   -2.4067    0.1819 F       1  UNL1       -0.2055
      2 O          -0.6953    2.2643    1.1971 O.2     1  UNL1       -0.2749
      3 N          -1.6604    0.3413    0.1777 N.am    1  UNL1       -0.2680
      4 N           2.3829   -0.3292   -0.8895 N.3     1  UNL1       -0.2980
      5 C          -2.9047    2.4659    0.5114 C.3     1  UNL1        0.0361
      6 C          -2.8527    3.7846   -0.1782 C.3     1  UNL1       -0.0412
      7 C          -3.4959    2.6077   -0.8478 C.3     1  UNL1       -0.0412
      8 C          -0.4820   -0.3354   -0.3034 C.3     1  UNL1        0.0334
      9 C          -1.6313    1.6869    0.6532 C.2     1  UNL1        0.2231
     10 C           0.0976    0.3816   -1.5225 C.3     1  UNL1       -0.0210
     11 C           0.5744   -0.4492    0.7961 C.3     1  UNL1       -0.0210
     12 C           1.4008   -0.2779   -1.9812 C.3     1  UNL1        0.0009
     13 C           1.8610   -1.0819    0.2595 C.3     1  UNL1        0.0009
     14 C          -2.9326   -0.3773    0.1787 C.ar    1  UNL1        0.0367
     15 C           3.6384   -0.9156   -1.3577 C.3     1  UNL1        0.0240
     16 C           4.7932   -0.5581   -0.4602 C.ar    1  UNL1       -0.0334
     17 C          -3.6182   -0.5798    1.3766 C.ar    1  UNL1       -0.0376
     18 C          -3.4620   -0.8603   -1.0180 C.ar    1  UNL1       -0.0376
     19 C          -4.8329   -1.2654    1.3777 C.ar    1  UNL1       -0.0247
     20 C          -4.6768   -1.5458   -1.0169 C.ar    1  UNL1       -0.0247
     21 C           5.5401    0.5929   -0.7108 C.ar    1  UNL1       -0.0573
     22 C           5.1165   -1.3776    0.6213 C.ar    1  UNL1       -0.0573
     23 C          -5.3622   -1.7485    0.1810 C.ar    1  UNL1        0.1235
     24 C           6.6104    0.9245    0.1201 C.ar    1  UNL1       -0.0615
     25 C           6.1868   -1.0460    1.4521 C.ar    1  UNL1       -0.0615
     26 C           6.9337    0.1050    1.2015 C.ar    1  UNL1       -0.0617
     27 H          -3.5777    2.4053    1.3605 H       1  UNL1        0.0394
     28 H          -3.5008    4.5729    0.1851 H       1  UNL1        0.0273
     29 H          -1.9082    4.1337   -0.5776 H       1  UNL1        0.0273
     30 H          -4.5759    2.6025   -0.9317 H       1  UNL1        0.0273
     31 H          -2.9815    2.1919   -1.7056 H       1  UNL1        0.0273
     32 H          -0.7555   -1.3560   -0.6047 H       1  UNL1        0.0505
     33 H           0.2947    1.4378   -1.2969 H       1  UNL1        0.0296
     34 H          -0.6264    0.3727   -2.3463 H       1  UNL1        0.0296
     35 H           0.1861   -1.0524    1.6261 H       1  UNL1        0.0296
     36 H           0.8373    0.5249    1.2195 H       1  UNL1        0.0296
     37 H           1.1903   -1.2850   -2.3646 H       1  UNL1        0.0427
     38 H           1.7999    0.3119   -2.8156 H       1  UNL1        0.0427
     39 H           2.5671   -1.0778    1.0940 H       1  UNL1        0.0427
     40 H           1.6712   -2.1299   -0.0076 H       1  UNL1        0.0427
     41 H           3.8822   -0.5400   -2.3615 H       1  UNL1        0.0476
     42 H           3.5643   -2.0059   -1.4731 H       1  UNL1        0.0476
     43 H          -3.2140   -0.2144    2.3170 H       1  UNL1        0.0637
     44 H          -2.9430   -0.7054   -1.9599 H       1  UNL1        0.0637
     45 H          -5.3662   -1.4244    2.3103 H       1  UNL1        0.0647
     46 H          -5.0900   -1.9207   -1.9486 H       1  UNL1        0.0647
     47 H           5.2977    1.2414   -1.5485 H       1  UNL1        0.0621
     48 H           4.5573   -2.2878    0.8203 H       1  UNL1        0.0621
     49 H           7.1918    1.8209   -0.0748 H       1  UNL1        0.0618
     50 H           6.4412   -1.6863    2.2917 H       1  UNL1        0.0618
     51 H           7.7675    0.3627    1.8479 H       1  UNL1        0.0618
@<TRIPOS>BOND
     1     1    23    1
     2     2     9    2
     3     3     8    1
     4     3     9   am
     5     3    14    1
     6     4    12    1
     7     4    13    1
     8     4    15    1
     9     5     6    1
    10     5     7    1
    11     5     9    1
    12     5    27    1
    13     6     7    1
    14     6    28    1
    15     6    29    1
    16     7    30    1
    17     7    31    1
    18     8    10    1
    19     8    11    1
    20     8    32    1
    21    10    12    1
    22    10    33    1
    23    10    34    1
    24    11    13    1
    25    11    35    1
    26    11    36    1
    27    12    37    1
    28    12    38    1
    29    13    39    1
    30    13    40    1
    31    14    17   ar
    32    14    18   ar
    33    15    16    1
    34    15    41    1
    35    15    42    1
    36    16    21   ar
    37    16    22   ar
    38    17    19   ar
    39    17    43    1
    40    18    20   ar
    41    18    44    1
    42    19    23   ar
    43    19    45    1
    44    20    23   ar
    45    20    46    1
    46    21    24   ar
    47    21    47    1
    48    22    25   ar
    49    22    48    1
    50    24    26   ar
    51    24    49    1
    52    25    26   ar
    53    25    50    1
    54    26    51    1
@<TRIPOS>MOLECULE
12107
 22 22 0 0 0
SMALL
GASTEIGER

@<TRIPOS>ATOM
      1 O           1.8576   -1.2960   -0.0078 O.2     1  UNL1       -0.2755
      2 N           0.7027    0.7547   -0.0042 N.am    1  UNL1       -0.2855
      3 C          -0.6395    0.3737   -0.0009 C.ar    1  UNL1        0.0334
      4 C           3.1174    0.7562   -0.0104 C.3     1  UNL1        0.0215
      5 C           1.8395   -0.0696   -0.0073 C.2     1  UNL1        0.2169
      6 C          -1.6404    1.3451    0.0014 C.ar    1  UNL1       -0.0405
      7 C          -0.9802   -0.9788   -0.0008 C.ar    1  UNL1       -0.0405
      8 C           4.3701   -0.1008    0.0209 C.3     1  UNL1       -0.0570
      9 C          -2.9823    0.9640    0.0038 C.ar    1  UNL1       -0.0600
     10 C          -2.3220   -1.3600    0.0015 C.ar    1  UNL1       -0.0600
     11 C          -3.3230   -0.3886    0.0038 C.ar    1  UNL1       -0.0616
     12 H           3.1223    1.3815   -0.9104 H       1  UNL1        0.0356
     13 H           3.1049    1.4183    0.8629 H       1  UNL1        0.0356
     14 H           0.8678    1.7593   -0.0048 H       1  UNL1        0.1548
     15 H          -1.3895    2.4028    0.0012 H       1  UNL1        0.0636
     16 H          -0.2639   -1.7882   -0.0026 H       1  UNL1        0.0636
     17 H           4.3950   -0.7280    0.9181 H       1  UNL1        0.0234
     18 H           5.2639    0.5306    0.0201 H       1  UNL1        0.0234
     19 H           4.4170   -0.7609   -0.8515 H       1  UNL1        0.0234
     20 H          -3.7618    1.7203    0.0056 H       1  UNL1        0.0618
     21 H          -2.5888   -2.4129    0.0015 H       1  UNL1        0.0618
     22 H          -4.3678   -0.6854    0.0056 H       1  UNL1        0.0618
@<TRIPOS>BOND
     1     1     5    2
     2     2     3    1
     3     2     5   am
     4     2    14    1
     5     3     6   ar
     6     3     7   ar
     7     4     5    1
     8     4     8    1
     9     4    12    1
    10     4    13    1
    11     6     9   ar
    12     6    15    1
    13     7    10   ar
    14     7    16    1
    15     8    17    1
    16     8    18    1
    17     8    19    1
    18     9    11   ar
    19     9    20    1
    20    10    11   ar
    21    10    21    1
    22    11    22    1
@<TRIPOS>MOLECULE
62300
 53 55 0 0 0
SMALL
GASTEIGER

@<TRIPOS>ATOM
      1 F          -4.4400   -4.2016   -0.2070 F       1  UNL1       -0.2055
      2 O          -3.3767    3.2820   -0.0244 O.2     1  UNL1       -0.2753
      3 N           1.4744    0.2287    0.4811 N.3     1  UNL1       -0.3019
      4 N          -2.6605    1.0230    0.0330 N.am    1  UNL1       -0.2683
      5 C          -1.2473    1.2619    0.1886 C.3     1  UNL1        0.0334
      6 C          -0.4594    0.6907   -0.9907 C.3     1  UNL1       -0.0210
      7 C          -0.7361    0.6691    1.5013 C.3     1  UNL1       -0.0210
      8 C           1.0474    0.8496   -0.7805 C.3     1  UNL1        0.0006
      9 C           0.7799    0.8273    1.6294 C.3     1  UNL1        0.0006
     10 C           2.9237    0.3439    0.6431 C.3     1  UNL1        0.0029
     11 C           3.6603   -0.3903   -0.4779 C.3     1  UNL1       -0.0149
     12 C          -3.1305   -0.3591   -0.0304 C.ar    1  UNL1        0.0367
     13 C          -3.6220    2.0735   -0.0619 C.2     1  UNL1        0.2198
     14 C           5.1560   -0.2983   -0.3103 C.ar    1  UNL1       -0.0462
     15 C          -5.0719    1.6111   -0.1748 C.3     1  UNL1        0.0217
     16 C          -3.4650   -0.9667    1.1430 C.ar    1  UNL1       -0.0376
     17 C          -3.2032   -0.9454   -1.2586 C.ar    1  UNL1       -0.0376
     18 C          -6.0527    2.7682   -0.2880 C.3     1  UNL1       -0.0570
     19 C           5.8426    0.7575   -0.8910 C.ar    1  UNL1       -0.0585
     20 C           5.8204   -1.2705    0.4221 C.ar    1  UNL1       -0.0585
     21 C          -3.9148   -2.2857    1.0825 C.ar    1  UNL1       -0.0247
     22 C          -3.6530   -2.2643   -1.3193 C.ar    1  UNL1       -0.0247
     23 C          -4.0087   -2.9346   -0.1488 C.ar    1  UNL1        0.1235
     24 C           7.2262    0.8429   -0.7359 C.ar    1  UNL1       -0.0615
     25 C           7.2040   -1.1849    0.5772 C.ar    1  UNL1       -0.0615
     26 C           7.9068   -0.1282   -0.0016 C.ar    1  UNL1       -0.0617
     27 H          -1.0809    2.3464    0.2163 H       1  UNL1        0.0505
     28 H          -0.6514   -0.3796   -1.1257 H       1  UNL1        0.0296
     29 H          -0.7584    1.1881   -1.9215 H       1  UNL1        0.0296
     30 H          -1.2313    1.1503    2.3535 H       1  UNL1        0.0296
     31 H          -0.9495   -0.4032    1.5728 H       1  UNL1        0.0296
     32 H           1.3149    1.9141   -0.8067 H       1  UNL1        0.0427
     33 H           1.5061    0.3726   -1.6502 H       1  UNL1        0.0427
     34 H           1.0970    0.3325    2.5557 H       1  UNL1        0.0427
     35 H           1.0313    1.8918    1.7271 H       1  UNL1        0.0427
     36 H           3.2334    1.3975    0.6762 H       1  UNL1        0.0430
     37 H           3.2185   -0.1008    1.6028 H       1  UNL1        0.0430
     38 H           3.3578   -1.4456   -0.5069 H       1  UNL1        0.0326
     39 H           3.4359    0.0139   -1.4700 H       1  UNL1        0.0326
     40 H          -5.1890    0.9870   -1.0659 H       1  UNL1        0.0356
     41 H          -5.3383    1.0296    0.7131 H       1  UNL1        0.0356
     42 H          -3.4055   -0.4616    2.1013 H       1  UNL1        0.0637
     43 H          -2.9399   -0.4235   -2.1725 H       1  UNL1        0.0637
     44 H          -5.9992    3.4174    0.5922 H       1  UNL1        0.0234
     45 H          -5.8397    3.3797   -1.1711 H       1  UNL1        0.0234
     46 H          -7.0770    2.3920   -0.3723 H       1  UNL1        0.0234
     47 H           5.3218    1.5207   -1.4623 H       1  UNL1        0.0620
     48 H           5.2817   -2.0961    0.8784 H       1  UNL1        0.0620
     49 H          -4.1944   -2.8067    1.9933 H       1  UNL1        0.0647
     50 H          -3.7289   -2.7688   -2.2780 H       1  UNL1        0.0647
     51 H           7.7734    1.6662   -1.1859 H       1  UNL1        0.0618
     52 H           7.7342   -1.9407    1.1494 H       1  UNL1        0.0618
     53 H           8.9840   -0.0614    0.1196 H       1  UNL1        0.0618
@<TRIPOS>BOND
     1     1    23    1
     2     2    13    2
     3     3     8    1
     4     3     9    1
     5     3    10    1
     6     4     5    1
     7     4    12    1
     8     4    13   am
     9     5     6    1
    10     5     7    1
    11     5    27    1
    12     6     8    1
    13     6    28    1
    14     6    29    1
    15     7     9    1
    16     7    30    1
    17     7    31    1
    18     8    32    1
    19     8    33    1
    20     9    34    1
    21     9    35    1
    22    10    11    1
    23    10    36    1
    24    10    37    1
    25    11    14    1
    26    11    38    1
    27    11    39    1
    28    12    16   ar
    29    12    17   ar
    30    13    15    1
    31    14    19   ar
    32    14    20   ar
    33    15    18    1
    34    15    40    1
    35    15    41    1
    36    16    21   ar
    37    16    42    1
    38    17    22   ar
    39    17    43    1
    40    18    44    1
    41    18    45    1
    42    18    46    1
    43    19    24   ar
    44    19    47    1
    45    20    25   ar
    46    20    48    1
    47    21    23   ar
    48    21    49    1
    49    22    23   ar
    50    22    50    1
    51    24    26   ar
    52    24    51    1
    53    25    26   ar
    54    25    52    1
    55    26    53    1
@<TRIPOS>MOLECULE
70865
 42 44 0 0 0
SMALL
GASTEIGER

@<TRIPOS>ATOM
      1 N          -1.3993   -1.2796   -0.0773 N.3     1  UNL1       -0.2980
      2 N           2.2339   -0.9112   -0.3265 N.pl3   1  UNL1       -0.3409
      3 C           1.4096   -1.3284    0.7916 C.3     1  UNL1        0.0230
      4 C           0.4436   -0.2080    1.1818 C.3     1  UNL1       -0.0217
      5 C           0.6340   -2.5970    0.4307 C.3     1  UNL1       -0.0217
      6 C          -0.6785   -0.0212    0.1555 C.3     1  UNL1        0.0009
      7 C          -0.4942   -2.3262   -0.5699 C.3     1  UNL1        0.0009
      8 C          -2.5013   -1.0722   -1.0168 C.3     1  UNL1        0.0240
      9 C          -3.4942   -0.0637   -0.5029 C.ar    1  UNL1       -0.0334
     10 C           3.3354   -0.0851   -0.1972 C.ar    1  UNL1        0.0273
     11 C          -4.5675   -0.4921    0.2658 C.ar    1  UNL1       -0.0573
     12 C          -3.3221    1.2800   -0.8046 C.ar    1  UNL1       -0.0573
     13 C           4.1000    0.2853   -1.3211 C.ar    1  UNL1       -0.0408
     14 C           3.7259    0.4104    1.0625 C.ar    1  UNL1       -0.0408
     15 C          -5.4874    0.4419    0.7421 C.ar    1  UNL1       -0.0615
     16 C          -4.2420    2.2140   -0.3281 C.ar    1  UNL1       -0.0615
     17 C           5.2114    1.1180   -1.1904 C.ar    1  UNL1       -0.0600
     18 C           4.8372    1.2433    1.1931 C.ar    1  UNL1       -0.0600
     19 C          -5.3246    1.7949    0.4453 C.ar    1  UNL1       -0.0617
     20 C           5.5799    1.5970    0.0665 C.ar    1  UNL1       -0.0616
     21 H           2.0420   -1.5947    1.6469 H       1  UNL1        0.0498
     22 H           0.9585    0.7488    1.3202 H       1  UNL1        0.0295
     23 H          -0.0067   -0.4581    2.1521 H       1  UNL1        0.0295
     24 H           0.2002   -3.0228    1.3452 H       1  UNL1        0.0295
     25 H           1.3106   -3.3556    0.0184 H       1  UNL1        0.0295
     26 H          -1.3235    0.7395    0.6027 H       1  UNL1        0.0427
     27 H          -0.2688    0.3849   -0.7783 H       1  UNL1        0.0427
     28 H          -0.0776   -2.0570   -1.5488 H       1  UNL1        0.0427
     29 H          -1.0521   -3.2608   -0.7068 H       1  UNL1        0.0427
     30 H          -3.0289   -2.0201   -1.1889 H       1  UNL1        0.0476
     31 H          -2.1328   -0.7561   -2.0029 H       1  UNL1        0.0476
     32 H           1.9676   -1.1917   -1.2635 H       1  UNL1        0.1463
     33 H          -4.7028   -1.5432    0.5049 H       1  UNL1        0.0621
     34 H          -2.4933    1.6206   -1.4190 H       1  UNL1        0.0621
     35 H           3.8270   -0.0791   -2.3091 H       1  UNL1        0.0636
     36 H           3.1887    0.1690    1.9745 H       1  UNL1        0.0636
     37 H          -6.3302    0.1157    1.3446 H       1  UNL1        0.0618
     38 H          -4.1175    3.2672   -0.5621 H       1  UNL1        0.0618
     39 H           5.7898    1.3936   -2.0674 H       1  UNL1        0.0618
     40 H           5.1252    1.6166    2.1716 H       1  UNL1        0.0618
     41 H          -6.0412    2.5222    0.8157 H       1  UNL1        0.0618
     42 H           6.4453    2.2455    0.1683 H       1  UNL1        0.0618
@<TRIPOS>BOND
     1     1     6    1
     2     1     7    1
     3     1     8    1
     4     2     3    1
     5     2    10    1
     6     2    32    1
     7     3     4    1
     8     3     5    1
     9     3    21    1
    10     4     6    1
    11     4    22    1
    12     4    23    1
    13     5     7    1
    14     5    24    1
    15     5    25    1
    16     6    26    1
    17     6    27    1
    18     7    28    1
    19     7    29    1
    20     8     9    1
    21     8    30    1
    22     8    31    1
    23     9    11   ar
    24     9    12   ar
    25    10    13   ar
    26    10    14   ar
    27    11    15   ar
    28    11    33    1
    29    12    16   ar
    30    12    34    1
    31    13    17   ar
    32    13    35    1
    33    14    18   ar
    34    14    36    1
    35    15    19   ar
    36    15    37    1
    37    16    19   ar
    38    16    38    1
    39    17    20   ar
    40    17    39    1
    41    18    20   ar
    42    18    40    1
    43    19    41    1
    44    20    42    1
@<TRIPOS>MOLECULE
14402357
 56 58 0 0 0
SMALL
GASTEIGER

@<TRIPOS>ATOM
      1 O          -3.5231   -2.8531   -0.1162 O.2     1  UNL1       -0.2750
      2 N           1.5113   -0.0923   -0.5003 N.3     1  UNL1       -0.3019
      3 N          -2.6670   -0.6517   -0.1021 N.am    1  UNL1       -0.2681
      4 C          -1.2692   -0.9696   -0.2560 C.3     1  UNL1        0.0334
      5 C          -0.7133   -0.3695   -1.5471 C.3     1  UNL1       -0.0210
      6 C          -0.4582   -0.4817    0.9449 C.3     1  UNL1       -0.0210
      7 C           0.7917   -0.6140   -1.6704 C.3     1  UNL1        0.0006
      8 C           1.0381   -0.7238    0.7393 C.3     1  UNL1        0.0006
      9 C           2.9524   -0.2888   -0.6567 C.3     1  UNL1        0.0029
     10 C          -3.7015   -1.6325   -0.0432 C.2     1  UNL1        0.2226
     11 C           3.7223    0.3666    0.4905 C.3     1  UNL1       -0.0149
     12 C          -3.0462    0.7565   -0.0007 C.ar    1  UNL1        0.0366
     13 C          -5.1368   -1.1059    0.1083 C.3     1  UNL1        0.0305
     14 C           5.2112    0.1906    0.3296 C.ar    1  UNL1       -0.0462
     15 C          -3.0900    1.3100    1.2438 C.ar    1  UNL1       -0.0403
     16 C          -3.3285    1.4184   -1.1579 C.ar    1  UNL1       -0.0403
     17 C          -5.5084   -1.0353    1.5894 C.3     1  UNL1       -0.0543
     18 C          -6.1341   -2.0070   -0.6270 C.3     1  UNL1       -0.0543
     19 C          -3.4508    2.6540    1.3404 C.ar    1  UNL1       -0.0600
     20 C          -3.6892    2.7623   -1.0614 C.ar    1  UNL1       -0.0600
     21 C           5.8295   -0.9204    0.8831 C.ar    1  UNL1       -0.0585
     22 C           5.9380    1.1428   -0.3690 C.ar    1  UNL1       -0.0585
     23 C          -3.7504    3.3801    0.1877 C.ar    1  UNL1       -0.0616
     24 C           7.2069   -1.0831    0.7345 C.ar    1  UNL1       -0.0615
     25 C           7.3153    0.9802   -0.5177 C.ar    1  UNL1       -0.0615
     26 C           7.9498   -0.1328    0.0342 C.ar    1  UNL1       -0.0617
     27 H          -1.1686   -2.0609   -0.3152 H       1  UNL1        0.0505
     28 H          -0.8604    0.7152   -1.5878 H       1  UNL1        0.0296
     29 H          -1.2294   -0.7946   -2.4165 H       1  UNL1        0.0296
     30 H          -0.7939   -0.9876    1.8585 H       1  UNL1        0.0296
     31 H          -0.5858    0.5938    1.1106 H       1  UNL1        0.0296
     32 H           0.9802   -1.6882   -1.7986 H       1  UNL1        0.0427
     33 H           1.1450   -0.1116   -2.5793 H       1  UNL1        0.0427
     34 H           1.2416   -1.8026    0.7350 H       1  UNL1        0.0427
     35 H           1.5174   -0.3011    1.6258 H       1  UNL1        0.0427
     36 H           3.1993   -1.3574   -0.7197 H       1  UNL1        0.0430
     37 H           3.2808    0.1659   -1.6007 H       1  UNL1        0.0430
     38 H           3.4828    1.4368    0.5494 H       1  UNL1        0.0326
     39 H           3.4664   -0.0529    1.4685 H       1  UNL1        0.0326
     40 H          -5.2626   -0.1192   -0.3370 H       1  UNL1        0.0389
     41 H          -2.8510    0.7536    2.1436 H       1  UNL1        0.0636
     42 H          -3.2956    0.9380   -2.1301 H       1  UNL1        0.0636
     43 H          -5.5463   -2.0392    2.0284 H       1  UNL1        0.0237
     44 H          -6.4957   -0.5786    1.7172 H       1  UNL1        0.0237
     45 H          -4.7955   -0.4638    2.1834 H       1  UNL1        0.0237
     46 H          -6.1495   -3.0201   -0.2101 H       1  UNL1        0.0237
     47 H          -5.8696   -2.0888   -1.6869 H       1  UNL1        0.0237
     48 H          -7.1486   -1.5997   -0.5607 H       1  UNL1        0.0237
     49 H          -3.4970    3.1354    2.3129 H       1  UNL1        0.0618
     50 H          -3.9256    3.3268   -1.9587 H       1  UNL1        0.0618
     51 H           5.2598   -1.6678    1.4281 H       1  UNL1        0.0620
     52 H           5.4528    2.0119   -0.8039 H       1  UNL1        0.0620
     53 H          -4.0318    4.4264    0.2629 H       1  UNL1        0.0618
     54 H           7.7008   -1.9501    1.1635 H       1  UNL1        0.0618
     55 H           7.8938    1.7198   -1.0635 H       1  UNL1        0.0618
     56 H           9.0222   -0.2595   -0.0819 H       1  UNL1        0.0618
@<TRIPOS>BOND
     1     1    10    2
     2     2     7    1
     3     2     8    1
     4     2     9    1
     5     3     4    1
     6     3    10   am
     7     3    12    1
     8     4     5    1
     9     4     6    1
    10     4    27    1
    11     5     7    1
    12     5    28    1
    13     5    29    1
    14     6     8    1
    15     6    30    1
    16     6    31    1
    17     7    32    1
    18     7    33    1
    19     8    34    1
    20     8    35    1
    21     9    11    1
    22     9    36    1
    23     9    37    1
    24    10    13    1
    25    11    14    1
    26    11    38    1
    27    11    39    1
    28    12    15   ar
    29    12    16   ar
    30    13    17    1
    31    13    18    1
    32    13    40    1
    33    14    21   ar
    34    14    22   ar
    35    15    19   ar
    36    15    41    1
    37    16    20   ar
    38    16    42    1
    39    17    43    1
    40    17    44    1
    41    17    45    1
    42    18    46    1
    43    18    47    1
    44    18    48    1
    45    19    23   ar
    46    19    49    1
    47    20    23   ar
    48    20    50    1
    49    21    24   ar
    50    21    51    1
    51    22    25   ar
    52    22    52    1
    53    23    53    1
    54    24    26   ar
    55    24    54    1
    56    25    26   ar
    57    25    55    1
    58    26    56    1
@<TRIPOS>MOLECULE
6115
 14 14 0 0 0
SMALL
GASTEIGER

@<TRIPOS>ATOM
      1 N          -2.4046    0.0000    0.0005 N.pl3   1  UNL1       -0.3580
      2 C          -0.9941   -0.0002   -0.0003 C.ar    1  UNL1        0.0245
      3 C          -0.2969    1.2079   -0.0003 C.ar    1  UNL1       -0.0410
      4 C          -0.2965   -1.2080   -0.0003 C.ar    1  UNL1       -0.0410
      5 C           1.0980    1.2080    0.0001 C.ar    1  UNL1       -0.0600
      6 C           1.0984   -1.2078    0.0001 C.ar    1  UNL1       -0.0600
      7 C           1.7957    0.0002    0.0003 C.ar    1  UNL1       -0.0616
      8 H          -0.8289    2.1558   -0.0003 H       1  UNL1        0.0636
      9 H          -0.8283   -2.1561   -0.0002 H       1  UNL1        0.0636
     10 H           1.6411    2.1486    0.0002 H       1  UNL1        0.0618
     11 H           1.6417   -2.1482    0.0002 H       1  UNL1        0.0618
     12 H           2.8818    0.0004    0.0006 H       1  UNL1        0.0618
     13 H          -2.9109   -0.8755   -0.0005 H       1  UNL1        0.1423
     14 H          -2.9107    0.8756   -0.0006 H       1  UNL1        0.1423
@<TRIPOS>BOND
     1     1     2    1
     2     1    13    1
     3     1    14    1
     4     2     3   ar
     5     2     4   ar
     6     3     5   ar
     7     3     8    1
     8     4     6   ar
     9     4     9    1
    10     5     7   ar
    11     5    10    1
    12     6     7   ar
    13     6    11    1
    14     7    12    1
@<TRIPOS>MOLECULE
62156
 59 61 0 0 0
SMALL
GASTEIGER

@<TRIPOS>ATOM
      1 O          -0.8036    2.7009    0.7448 O.3     1  UNL1       -0.4664
      2 O          -2.1698    1.5219    2.1873 O.2     1  UNL1       -0.2484
      3 O          -3.0701    2.3826   -1.1691 O.2     1  UNL1       -0.2752
      4 N           1.5416   -0.2758    0.0399 N.3     1  UNL1       -0.3018
      5 N          -2.6421    0.2359   -0.2616 N.am    1  UNL1       -0.2547
      6 C          -1.2938    0.4755    0.1979 C.3     1  UNL1        0.1408
      7 C          -0.7288   -0.7645    0.8975 C.3     1  UNL1       -0.0078
      8 C          -0.3907    0.9026   -0.9632 C.3     1  UNL1       -0.0078
      9 C           0.7576   -0.6136    1.2348 C.3     1  UNL1        0.0014
     10 C           1.0822    0.9871   -0.5520 C.3     1  UNL1        0.0014
     11 C           2.9651   -0.1987    0.3675 C.3     1  UNL1        0.0029
     12 C          -1.4907    1.6036    1.1727 C.2     1  UNL1        0.3312
     13 C          -3.2278   -1.0847   -0.0443 C.ar    1  UNL1        0.0374
     14 C           3.8266   -0.4676   -0.8669 C.3     1  UNL1       -0.0149
     15 C          -3.4284    1.2293   -0.9178 C.2     1  UNL1        0.2205
     16 C          -4.8446    0.7931   -1.2828 C.3     1  UNL1        0.0217
     17 C           5.2973   -0.4131   -0.5379 C.ar    1  UNL1       -0.0462
     18 C          -3.0783   -2.0812   -1.0090 C.ar    1  UNL1       -0.0402
     19 C          -3.9360   -1.3497    1.1280 C.ar    1  UNL1       -0.0402
     20 C          -5.6329    1.8833   -1.9924 C.3     1  UNL1       -0.0570
     21 C          -0.9047    3.8555    1.5843 C.3     1  UNL1        0.0817
     22 C          -3.6370   -3.3423   -0.8016 C.ar    1  UNL1       -0.0600
     23 C          -4.4947   -2.6109    1.3354 C.ar    1  UNL1       -0.0600
     24 C           5.9893    0.7942   -0.6345 C.ar    1  UNL1       -0.0585
     25 C           5.9657   -1.5699   -0.1367 C.ar    1  UNL1       -0.0585
     26 C          -4.3451   -3.6072    0.3705 C.ar    1  UNL1       -0.0616
     27 C           7.3497    0.8447   -0.3300 C.ar    1  UNL1       -0.0615
     28 C           7.3260   -1.5192    0.1679 C.ar    1  UNL1       -0.0615
     29 C           8.0179   -0.3118    0.0712 C.ar    1  UNL1       -0.0617
     30 H          -1.2557   -0.9868    1.8338 H       1  UNL1        0.0304
     31 H          -0.7947   -1.6543    0.2600 H       1  UNL1        0.0304
     32 H          -0.4765    0.1552   -1.7661 H       1  UNL1        0.0304
     33 H          -0.6841    1.8483   -1.4333 H       1  UNL1        0.0304
     34 H           0.8892    0.1466    2.0161 H       1  UNL1        0.0427
     35 H           1.1039   -1.5678    1.6517 H       1  UNL1        0.0427
     36 H           1.6509    1.2030   -1.4637 H       1  UNL1        0.0427
     37 H           1.2708    1.8241    0.1287 H       1  UNL1        0.0427
     38 H           3.2232    0.7608    0.8358 H       1  UNL1        0.0430
     39 H           3.2180   -0.9692    1.1094 H       1  UNL1        0.0430
     40 H           3.6218    0.2561   -1.6647 H       1  UNL1        0.0326
     41 H           3.5855   -1.4517   -1.2905 H       1  UNL1        0.0326
     42 H          -5.3862    0.5222   -0.3711 H       1  UNL1        0.0356
     43 H          -4.7990   -0.0742   -1.9485 H       1  UNL1        0.0356
     44 H          -2.5285   -1.8847   -1.9257 H       1  UNL1        0.0636
     45 H          -4.0618   -0.5812    1.8858 H       1  UNL1        0.0636
     46 H          -5.7324    2.7721   -1.3604 H       1  UNL1        0.0234
     47 H          -5.1387    2.1845   -2.9220 H       1  UNL1        0.0234
     48 H          -6.6377    1.5268   -2.2397 H       1  UNL1        0.0234
     49 H          -0.3136    4.6564    1.1325 H       1  UNL1        0.0661
     50 H          -0.5007    3.6376    2.5775 H       1  UNL1        0.0661
     51 H          -1.9464    4.1830    1.6529 H       1  UNL1        0.0661
     52 H          -3.5206   -4.1180   -1.5528 H       1  UNL1        0.0618
     53 H          -5.0466   -2.8170    2.2478 H       1  UNL1        0.0618
     54 H           5.4791    1.7025   -0.9437 H       1  UNL1        0.0620
     55 H           5.4371   -2.5161   -0.0558 H       1  UNL1        0.0620
     56 H          -4.7802   -4.5890    0.5320 H       1  UNL1        0.0618
     57 H           7.8883    1.7848   -0.4046 H       1  UNL1        0.0618
     58 H           7.8465   -2.4197    0.4808 H       1  UNL1        0.0618
     59 H           9.0770   -0.2724    0.3086 H       1  UNL1        0.0618
@<TRIPOS>BOND
     1     1    12    1
     2     1    21    1
     3     2    12    2
     4     3    15    2
     5     4     9    1
     6     4    10    1
     7     4    11    1
     8     5     6    1
     9     5    13    1
    10     5    15   am
    11     6     7    1
    12     6     8    1
    13     6    12    1
    14     7     9    1
    15     7    30    1
    16     7    31    1
    17     8    10    1
    18     8    32    1
    19     8    33    1
    20     9    34    1
    21     9    35    1
    22    10    36    1
    23    10    37    1
    24    11    14    1
    25    11    38    1
    26    11    39    1
    27    13    18   ar
    28    13    19   ar
    29    14    17    1
    30    14    40    1
    31    14    41    1
    32    15    16    1
    33    16    20    1
    34    16    42    1
    35    16    43    1
    36    17    24   ar
    37    17    25   ar
    38    18    22   ar
    39    18    44    1
    40    19    23   ar
    41    19    45    1
    42    20    46    1
    43    20    47    1
    44    20    48    1
    45    21    49    1
    46    21    50    1
    47    21    51    1
    48    22    26   ar
    49    22    52    1
    50    23    26   ar
    51    23    53    1
    52    24    27   ar
    53    24    54    1
    54    25    28   ar
    55    25    55    1
    56    26    56    1
    57    27    29   ar
    58    27    57    1
    59    28    29   ar
    60    28    58    1
    61    29    59    1
@<TRIPOS>MOLECULE
137699860
 59 61 0 0 0
SMALL
GASTEIGER

@<TRIPOS>ATOM
      1 O          -2.1396    1.7590   -1.5545 O.2     1  UNL1       -0.2752
      2 N           1.7319   -0.2647   -0.4783 N.3     1  UNL1       -0.3019
      3 N          -2.5014   -0.2654   -0.3855 N.am    1  UNL1       -0.2683
      4 C          -1.1458   -0.7290   -0.2250 C.3     1  UNL1        0.0334
      5 C          -0.4258   -0.7835   -1.5722 C.3     1  UNL1       -0.0210
      6 C          -0.3727    0.1580    0.7513 C.3     1  UNL1       -0.0210
      7 C           1.0427   -1.1765   -1.4018 C.3     1  UNL1        0.0006
      8 C           1.0938   -0.2671    0.8454 C.3     1  UNL1        0.0006
      9 C           3.1455   -0.6235   -0.3654 C.3     1  UNL1        0.0029
     10 C           3.9872    0.5872    0.0392 C.3     1  UNL1       -0.0149
     11 C          -2.8279    1.0565   -0.8096 C.2     1  UNL1        0.2200
     12 C          -3.5748   -1.1779    0.0053 C.ar    1  UNL1        0.0366
     13 C          -4.1739    1.5823   -0.3141 C.3     1  UNL1        0.0245
     14 C           5.4505    0.2361    0.1378 C.ar    1  UNL1       -0.0462
     15 C          -4.2170    3.1013   -0.1243 C.3     1  UNL1       -0.0450
     16 C          -4.5691   -1.5183   -0.9117 C.ar    1  UNL1       -0.0403
     17 C          -3.6035   -1.7094    1.2945 C.ar    1  UNL1       -0.0403
     18 C          -3.1838    3.5930    0.8929 C.3     1  UNL1       -0.0555
     19 C          -5.5924   -2.3901   -0.5395 C.ar    1  UNL1       -0.0600
     20 C          -4.6267   -2.5813    1.6668 C.ar    1  UNL1       -0.0600
     21 C           5.9802   -0.2130    1.3475 C.ar    1  UNL1       -0.0585
     22 C           6.2741    0.3604   -0.9809 C.ar    1  UNL1       -0.0585
     23 C          -5.6212   -2.9216    0.7498 C.ar    1  UNL1       -0.0616
     24 C          -3.2492    5.1026    1.0642 C.3     1  UNL1       -0.0653
     25 C           7.3338   -0.5376    1.4384 C.ar    1  UNL1       -0.0615
     26 C           7.6276    0.0358   -0.8900 C.ar    1  UNL1       -0.0615
     27 C           8.1574   -0.4131    0.3197 C.ar    1  UNL1       -0.0617
     28 H          -1.1545   -1.7515    0.1766 H       1  UNL1        0.0505
     29 H          -0.4593    0.1797   -2.0918 H       1  UNL1        0.0296
     30 H          -0.9236   -1.5050   -2.2320 H       1  UNL1        0.0296
     31 H          -0.8313    0.1124    1.7465 H       1  UNL1        0.0296
     32 H          -0.4131    1.2104    0.4426 H       1  UNL1        0.0296
     33 H           1.1094   -2.2139   -1.0480 H       1  UNL1        0.0427
     34 H           1.5170   -1.1383   -2.3902 H       1  UNL1        0.0427
     35 H           1.5966    0.4334    1.5208 H       1  UNL1        0.0427
     36 H           1.1546   -1.2614    1.3078 H       1  UNL1        0.0427
     37 H           3.2961   -1.4652    0.3240 H       1  UNL1        0.0430
     38 H           3.5215   -0.9654   -1.3399 H       1  UNL1        0.0430
     39 H           3.6621    0.9978    1.0026 H       1  UNL1        0.0326
     40 H           3.8570    1.3997   -0.6882 H       1  UNL1        0.0326
     41 H          -4.9375    1.2989   -1.0468 H       1  UNL1        0.0358
     42 H          -4.4343    1.1267    0.6466 H       1  UNL1        0.0358
     43 H          -5.2231    3.3888    0.2037 H       1  UNL1        0.0270
     44 H          -4.0421    3.5955   -1.0879 H       1  UNL1        0.0270
     45 H          -4.5537   -1.1197   -1.9228 H       1  UNL1        0.0636
     46 H          -2.8429   -1.4482    2.0252 H       1  UNL1        0.0636
     47 H          -2.1696    3.3227    0.5809 H       1  UNL1        0.0263
     48 H          -3.3621    3.1124    1.8619 H       1  UNL1        0.0263
     49 H          -6.3655   -2.6568   -1.2542 H       1  UNL1        0.0618
     50 H          -4.6504   -2.9935    2.6714 H       1  UNL1        0.0618
     51 H           5.3480   -0.3161    2.2255 H       1  UNL1        0.0620
     52 H           5.8727    0.7074   -1.9293 H       1  UNL1        0.0620
     53 H          -6.4179   -3.6004    1.0397 H       1  UNL1        0.0618
     54 H          -3.0417    5.6139    0.1188 H       1  UNL1        0.0230
     55 H          -2.5084    5.4331    1.7990 H       1  UNL1        0.0230
     56 H          -4.2380    5.4153    1.4148 H       1  UNL1        0.0230
     57 H           7.7463   -0.8877    2.3801 H       1  UNL1        0.0618
     58 H           8.2689    0.1322   -1.7612 H       1  UNL1        0.0618
     59 H           9.2113   -0.6660    0.3904 H       1  UNL1        0.0618
@<TRIPOS>BOND
     1     1    11    2
     2     2     7    1
     3     2     8    1
     4     2     9    1
     5     3     4    1
     6     3    11   am
     7     3    12    1
     8     4     5    1
     9     4     6    1
    10     4    28    1
    11     5     7    1
    12     5    29    1
    13     5    30    1
    14     6     8    1
    15     6    31    1
    16     6    32    1
    17     7    33    1
    18     7    34    1
    19     8    35    1
    20     8    36    1
    21     9    10    1
    22     9    37    1
    23     9    38    1
    24    10    14    1
    25    10    39    1
    26    10    40    1
    27    11    13    1
    28    12    16   ar
    29    12    17   ar
    30    13    15    1
    31    13    41    1
    32    13    42    1
    33    14    21   ar
    34    14    22   ar
    35    15    18    1
    36    15    43    1
    37    15    44    1
    38    16    19   ar
    39    16    45    1
    40    17    20   ar
    41    17    46    1
    42    18    24    1
    43    18    47    1
    44    18    48    1
    45    19    23   ar
    46    19    49    1
    47    20    23   ar
    48    20    50    1
    49    21    25   ar
    50    21    51    1
    51    22    26   ar
    52    22    52    1
    53    23    53    1
    54    24    54    1
    55    24    55    1
    56    24    56    1
    57    25    27   ar
    58    25    57    1
    59    26    27   ar
    60    26    58    1
    61    27    59    1
@<TRIPOS>MOLECULE
968688
 54 56 0 0 0
SMALL
GASTEIGER

@<TRIPOS>ATOM
      1 O          -3.5098   -2.7588   -0.0598 O.2     1  UNL1       -0.2727
      2 O          -5.9812   -2.0678    0.1225 O.3     1  UNL1       -0.3738
      3 N           1.5756   -0.0816   -0.4808 N.3     1  UNL1       -0.3019
      4 N          -2.6093   -0.5637   -0.0520 N.am    1  UNL1       -0.2664
      5 C          -1.2188   -0.9074   -0.2161 C.3     1  UNL1        0.0335
      6 C          -0.3902   -0.4347    0.9788 C.3     1  UNL1       -0.0210
      7 C          -0.6614   -0.3175   -1.5113 C.3     1  UNL1       -0.0210
      8 C           1.0999   -0.7044    0.7623 C.3     1  UNL1        0.0006
      9 C           0.8379   -0.5898   -1.6456 C.3     1  UNL1        0.0006
     10 C           3.0116   -0.3046   -0.6477 C.3     1  UNL1        0.0029
     11 C           3.8019    0.3363    0.4938 C.3     1  UNL1       -0.0149
     12 C          -2.9689    0.8477    0.0528 C.ar    1  UNL1        0.0366
     13 C          -3.6479   -1.5341    0.0127 C.2     1  UNL1        0.2458
     14 C           5.2861    0.1328    0.3219 C.ar    1  UNL1       -0.0462
     15 C          -5.0623   -0.9960    0.1308 C.3     1  UNL1        0.1238
     16 C          -2.9971    1.4021    1.2983 C.ar    1  UNL1       -0.0403
     17 C          -3.2516    1.5159   -1.1017 C.ar    1  UNL1       -0.0403
     18 C           5.8875   -0.9901    0.8702 C.ar    1  UNL1       -0.0585
     19 C           6.0252    1.0716   -0.3820 C.ar    1  UNL1       -0.0585
     20 C          -3.3401    2.7504    1.3986 C.ar    1  UNL1       -0.0600
     21 C          -3.5947    2.8642   -1.0012 C.ar    1  UNL1       -0.0600
     22 C          -3.6389    3.4814    0.2489 C.ar    1  UNL1       -0.0616
     23 C           7.2604   -1.1786    0.7111 C.ar    1  UNL1       -0.0615
     24 C           7.3981    0.8829   -0.5412 C.ar    1  UNL1       -0.0615
     25 C           8.0156   -0.2422    0.0053 C.ar    1  UNL1       -0.0617
     26 C          -7.3274   -1.6142    0.2313 C.3     1  UNL1        0.0371
     27 H          -1.1380   -2.0003   -0.2762 H       1  UNL1        0.0505
     28 H          -0.7283   -0.9347    1.8947 H       1  UNL1        0.0296
     29 H          -0.4982    0.6428    1.1456 H       1  UNL1        0.0296
     30 H          -0.7900    0.7697   -1.5506 H       1  UNL1        0.0296
     31 H          -1.1915   -0.7330   -2.3768 H       1  UNL1        0.0296
     32 H           1.2835   -1.7869    0.7566 H       1  UNL1        0.0427
     33 H           1.5933   -0.2907    1.6453 H       1  UNL1        0.0427
     34 H           1.0056   -1.6672   -1.7752 H       1  UNL1        0.0427
     35 H           1.1938   -0.0939   -2.5571 H       1  UNL1        0.0427
     36 H           3.3414    0.1440   -1.5941 H       1  UNL1        0.0430
     37 H           3.2382   -1.3777   -0.7125 H       1  UNL1        0.0430
     38 H           3.5827    1.4107    0.5544 H       1  UNL1        0.0326
     39 H           3.5454   -0.0785    1.4737 H       1  UNL1        0.0326
     40 H          -5.2783   -0.3440   -0.7208 H       1  UNL1        0.0657
     41 H          -5.1629   -0.4474    1.0727 H       1  UNL1        0.0657
     42 H          -2.7781    0.8339    2.1961 H       1  UNL1        0.0636
     43 H          -3.2312    1.0367   -2.0747 H       1  UNL1        0.0636
     44 H           5.3080   -1.7270    1.4191 H       1  UNL1        0.0620
     45 H           5.5531    1.9499   -0.8130 H       1  UNL1        0.0620
     46 H          -3.3777    3.2302    2.3723 H       1  UNL1        0.0618
     47 H          -3.8305    3.4326   -1.8961 H       1  UNL1        0.0618
     48 H          -3.9074    4.5308    0.3271 H       1  UNL1        0.0618
     49 H           7.7411   -2.0550    1.1359 H       1  UNL1        0.0618
     50 H           7.9864    1.6117   -1.0912 H       1  UNL1        0.0618
     51 H           9.0845   -0.3891   -0.1190 H       1  UNL1        0.0618
     52 H          -7.4744   -1.0761    1.1726 H       1  UNL1        0.0524
     53 H          -7.9854   -2.4871    0.2202 H       1  UNL1        0.0524
     54 H          -7.5838   -0.9709   -0.6160 H       1  UNL1        0.0524
@<TRIPOS>BOND
     1     1    13    2
     2     2    15    1
     3     2    26    1
     4     3     8    1
     5     3     9    1
     6     3    10    1
     7     4     5    1
     8     4    12    1
     9     4    13   am
    10     5     6    1
    11     5     7    1
    12     5    27    1
    13     6     8    1
    14     6    28    1
    15     6    29    1
    16     7     9    1
    17     7    30    1
    18     7    31    1
    19     8    32    1
    20     8    33    1
    21     9    34    1
    22     9    35    1
    23    10    11    1
    24    10    36    1
    25    10    37    1
    26    11    14    1
    27    11    38    1
    28    11    39    1
    29    12    16   ar
    30    12    17   ar
    31    13    15    1
    32    14    18   ar
    33    14    19   ar
    34    15    40    1
    35    15    41    1
    36    16    20   ar
    37    16    42    1
    38    17    21   ar
    39    17    43    1
    40    18    23   ar
    41    18    44    1
    42    19    24   ar
    43    19    45    1
    44    20    22   ar
    45    20    46    1
    46    21    22   ar
    47    21    47    1
    48    22    48    1
    49    23    25   ar
    50    23    49    1
    51    24    25   ar
    52    24    50    1
    53    25    51    1
    54    26    52    1
    55    26    53    1
    56    26    54    1
@<TRIPOS>MOLECULE
527013
 56 58 0 0 0
SMALL
GASTEIGER

@<TRIPOS>ATOM
      1 O          -3.3685    3.2945   -0.0272 O.2     1  UNL1       -0.2753
      2 N           1.4764    0.2319    0.4810 N.3     1  UNL1       -0.3019
      3 N          -2.6569    1.0342    0.0325 N.am    1  UNL1       -0.2683
      4 C          -1.2432    1.2703    0.1877 C.3     1  UNL1        0.0334
      5 C          -0.7331    0.6778    1.5010 C.3     1  UNL1       -0.0210
      6 C          -0.4566    0.6963   -0.9911 C.3     1  UNL1       -0.0210
      7 C           0.7833    0.8331    1.6288 C.3     1  UNL1        0.0006
      8 C           1.0506    0.8523   -0.7812 C.3     1  UNL1        0.0006
      9 C           2.9259    0.3443    0.6428 C.3     1  UNL1        0.0029
     10 C           3.6609   -0.3926   -0.4776 C.3     1  UNL1       -0.0149
     11 C          -3.1298   -0.3471   -0.0294 C.ar    1  UNL1        0.0366
     12 C          -3.6163    2.0866   -0.0633 C.2     1  UNL1        0.2198
     13 C           5.1568   -0.3035   -0.3102 C.ar    1  UNL1       -0.0462
     14 C          -5.0671    1.6270   -0.1757 C.3     1  UNL1        0.0217
     15 C          -3.2037   -0.9343   -1.2572 C.ar    1  UNL1       -0.0400
     16 C          -3.4641   -0.9534    1.1447 C.ar    1  UNL1       -0.0400
     17 C          -3.6551   -2.2528   -1.3166 C.ar    1  UNL1       -0.0571
     18 C          -3.9153   -2.2719    1.0852 C.ar    1  UNL1       -0.0571
     19 C          -6.0456    2.7860   -0.2900 C.3     1  UNL1       -0.0570
     20 C           5.8455    0.7502   -0.8921 C.ar    1  UNL1       -0.0585
     21 C           5.8193   -1.2764    0.4232 C.ar    1  UNL1       -0.0585
     22 C          -4.0108   -2.9216   -0.1455 C.ar    1  UNL1       -0.0503
     23 C           7.2293    0.8330   -0.7372 C.ar    1  UNL1       -0.0615
     24 C           7.2031   -1.1935    0.5781 C.ar    1  UNL1       -0.0615
     25 C          -4.4928   -4.3316   -0.2088 C.3     1  UNL1       -0.0397
     26 C           7.9080   -0.1387   -0.0020 C.ar    1  UNL1       -0.0617
     27 H          -1.0746    2.3545    0.2143 H       1  UNL1        0.0505
     28 H          -1.2272    1.1609    2.3527 H       1  UNL1        0.0296
     29 H          -0.9486   -0.3939    1.5736 H       1  UNL1        0.0296
     30 H          -0.6509   -0.3738   -1.1249 H       1  UNL1        0.0296
     31 H          -0.7547    1.1933   -1.9223 H       1  UNL1        0.0296
     32 H           1.0368    1.8971    1.7254 H       1  UNL1        0.0427
     33 H           1.0993    0.3386    2.5555 H       1  UNL1        0.0427
     34 H           1.5081    0.3734   -1.6504 H       1  UNL1        0.0427
     35 H           1.3202    1.9162   -0.8085 H       1  UNL1        0.0427
     36 H           3.2199   -0.1000    1.6029 H       1  UNL1        0.0430
     37 H           3.2378    1.3972    0.6748 H       1  UNL1        0.0430
     38 H           3.3563   -1.4474   -0.5054 H       1  UNL1        0.0326
     39 H           3.4372    0.0110   -1.4700 H       1  UNL1        0.0326
     40 H          -5.3346    1.0468    0.7128 H       1  UNL1        0.0356
     41 H          -5.1856    1.0022   -1.0661 H       1  UNL1        0.0356
     42 H          -2.9397   -0.4135   -2.1715 H       1  UNL1        0.0636
     43 H          -3.4031   -0.4476    2.1026 H       1  UNL1        0.0636
     44 H          -3.7261   -2.7478   -2.2815 H       1  UNL1        0.0621
     45 H          -4.1905   -2.7820    2.0046 H       1  UNL1        0.0621
     46 H          -7.0707    2.4118   -0.3738 H       1  UNL1        0.0234
     47 H          -5.8314    3.3961   -1.1737 H       1  UNL1        0.0234
     48 H          -5.9907    3.4360    0.5896 H       1  UNL1        0.0234
     49 H           5.3262    1.5139   -1.4641 H       1  UNL1        0.0620
     50 H           5.2790   -2.1003    0.8803 H       1  UNL1        0.0620
     51 H           7.7782    1.6546   -1.1881 H       1  UNL1        0.0618
     52 H           7.7318   -1.9497    1.1510 H       1  UNL1        0.0618
     53 H          -3.6479   -5.0217   -0.1206 H       1  UNL1        0.0278
     54 H          -5.2042   -4.5425    0.5970 H       1  UNL1        0.0278
     55 H          -5.0110   -4.5300   -1.1532 H       1  UNL1        0.0278
     56 H           8.9854   -0.0741    0.1190 H       1  UNL1        0.0618
@<TRIPOS>BOND
     1     1    12    2
     2     2     7    1
     3     2     8    1
     4     2     9    1
     5     3     4    1
     6     3    11    1
     7     3    12   am
     8     4     5    1
     9     4     6    1
    10     4    27    1
    11     5     7    1
    12     5    28    1
    13     5    29    1
    14     6     8    1
    15     6    30    1
    16     6    31    1
    17     7    32    1
    18     7    33    1
    19     8    34    1
    20     8    35    1
    21     9    10    1
    22     9    36    1
    23     9    37    1
    24    10    13    1
    25    10    38    1
    26    10    39    1
    27    11    15   ar
    28    11    16   ar
    29    12    14    1
    30    13    20   ar
    31    13    21   ar
    32    14    19    1
    33    14    40    1
    34    14    41    1
    35    15    17   ar
    36    15    42    1
    37    16    18   ar
    38    16    43    1
    39    17    22   ar
    40    17    44    1
    41    18    22   ar
    42    18    45    1
    43    19    46    1
    44    19    47    1
    45    19    48    1
    46    20    23   ar
    47    20    49    1
    48    21    24   ar
    49    21    50    1
    50    22    25    1
    51    23    26   ar
    52    23    51    1
    53    24    26   ar
    54    24    52    1
    55    25    53    1
    56    25    54    1
    57    25    55    1
    58    26    56    1
@<TRIPOS>MOLECULE
137332271
 54 57 0 0 0
SMALL
GASTEIGER

@<TRIPOS>ATOM
      1 O          -2.1303    2.4193   -1.0599 O.2     1  UNL1       -0.2749
      2 N          -2.5828    0.2013   -0.3302 N.am    1  UNL1       -0.2681
      3 N           1.6461    0.0303   -0.4614 N.3     1  UNL1       -0.3019
      4 C          -4.1090    2.1105    0.1152 C.3     1  UNL1        0.0361
      5 C          -4.0391    3.2595    1.0602 C.3     1  UNL1       -0.0412
      6 C          -4.3576    1.8843    1.5661 C.3     1  UNL1       -0.0412
      7 C          -1.2501   -0.3470   -0.2870 C.3     1  UNL1        0.0334
      8 C          -0.4372    0.2713    0.8507 C.3     1  UNL1       -0.0210
      9 C          -0.5329   -0.1406   -1.6209 C.3     1  UNL1       -0.0210
     10 C          -2.8294    1.5981   -0.4748 C.2     1  UNL1        0.2231
     11 C           1.0080   -0.2301    0.8364 C.3     1  UNL1        0.0006
     12 C           0.9157   -0.6274   -1.5538 C.3     1  UNL1        0.0006
     13 C           3.0415   -0.4081   -0.4425 C.3     1  UNL1        0.0029
     14 C          -3.6998   -0.7185   -0.1369 C.ar    1  UNL1        0.0366
     15 C           3.9382    0.6467    0.2066 C.3     1  UNL1       -0.0149
     16 C          -4.6991   -0.8152   -1.1054 C.ar    1  UNL1       -0.0403
     17 C          -3.7681   -1.5003    1.0161 C.ar    1  UNL1       -0.0403
     18 C           5.3836    0.2167    0.2127 C.ar    1  UNL1       -0.0462
     19 C          -5.7667   -1.6939   -0.9207 C.ar    1  UNL1       -0.0600
     20 C          -4.8356   -2.3788    1.2008 C.ar    1  UNL1       -0.0600
     21 C          -5.8349   -2.4757    0.2324 C.ar    1  UNL1       -0.0616
     22 C           5.8914   -0.5076    1.2913 C.ar    1  UNL1       -0.0585
     23 C           6.2126    0.5432   -0.8604 C.ar    1  UNL1       -0.0585
     24 C           7.2285   -0.9051    1.2967 C.ar    1  UNL1       -0.0615
     25 C           7.5495    0.1456   -0.8550 C.ar    1  UNL1       -0.0615
     26 C           8.0575   -0.5785    0.2236 C.ar    1  UNL1       -0.0617
     27 H          -4.9596    2.1063   -0.5585 H       1  UNL1        0.0394
     28 H          -4.8429    3.9854    1.0364 H       1  UNL1        0.0273
     29 H          -3.0716    3.6751    1.3143 H       1  UNL1        0.0273
     30 H          -5.3753    1.6845    1.8789 H       1  UNL1        0.0273
     31 H          -3.6024    1.4026    2.1753 H       1  UNL1        0.0273
     32 H          -1.3080   -1.4305   -0.1152 H       1  UNL1        0.0505
     33 H          -0.8979    0.0312    1.8167 H       1  UNL1        0.0296
     34 H          -0.4295    1.3664    0.7783 H       1  UNL1        0.0296
     35 H          -0.5204    0.9126   -1.9194 H       1  UNL1        0.0296
     36 H          -1.0633   -0.6785   -2.4165 H       1  UNL1        0.0296
     37 H           1.5424    0.2838    1.6427 H       1  UNL1        0.0427
     38 H           1.0224   -1.3027    1.0719 H       1  UNL1        0.0427
     39 H           0.9342   -1.7187   -1.4337 H       1  UNL1        0.0427
     40 H           1.3917   -0.3973   -2.5150 H       1  UNL1        0.0427
     41 H           3.4016   -0.5472   -1.4715 H       1  UNL1        0.0430
     42 H           3.1526   -1.3852    0.0467 H       1  UNL1        0.0430
     43 H           3.6320    0.8530    1.2391 H       1  UNL1        0.0326
     44 H           3.8461    1.6026   -0.3262 H       1  UNL1        0.0326
     45 H          -4.6546   -0.2171   -2.0118 H       1  UNL1        0.0636
     46 H          -3.0034   -1.4317    1.7850 H       1  UNL1        0.0636
     47 H          -6.5440   -1.7702   -1.6754 H       1  UNL1        0.0618
     48 H          -4.8899   -2.9861    2.0996 H       1  UNL1        0.0618
     49 H          -6.6662   -3.1596    0.3764 H       1  UNL1        0.0618
     50 H           5.2548   -0.7698    2.1321 H       1  UNL1        0.0620
     51 H           5.8280    1.1054   -1.7072 H       1  UNL1        0.0620
     52 H           7.6240   -1.4694    2.1362 H       1  UNL1        0.0618
     53 H           8.1950    0.3994   -1.6908 H       1  UNL1        0.0618
     54 H           9.0985   -0.8882    0.2277 H       1  UNL1        0.0618
@<TRIPOS>BOND
     1     1    10    2
     2     2     7    1
     3     2    10   am
     4     2    14    1
     5     3    11    1
     6     3    12    1
     7     3    13    1
     8     4     5    1
     9     4     6    1
    10     4    10    1
    11     4    27    1
    12     5     6    1
    13     5    28    1
    14     5    29    1
    15     6    30    1
    16     6    31    1
    17     7     8    1
    18     7     9    1
    19     7    32    1
    20     8    11    1
    21     8    33    1
    22     8    34    1
    23     9    12    1
    24     9    35    1
    25     9    36    1
    26    11    37    1
    27    11    38    1
    28    12    39    1
    29    12    40    1
    30    13    15    1
    31    13    41    1
    32    13    42    1
    33    14    16   ar
    34    14    17   ar
    35    15    18    1
    36    15    43    1
    37    15    44    1
    38    16    19   ar
    39    16    45    1
    40    17    20   ar
    41    17    46    1
    42    18    22   ar
    43    18    23   ar
    44    19    21   ar
    45    19    47    1
    46    20    21   ar
    47    20    48    1
    48    21    49    1
    49    22    24   ar
    50    22    50    1
    51    23    25   ar
    52    23    51    1
    53    24    26   ar
    54    24    52    1
    55    25    26   ar
    56    25    53    1
    57    26    54    1
@<TRIPOS>MOLECULE
137700511
 58 61 0 0 0
SMALL
GASTEIGER

@<TRIPOS>ATOM
      1 O          -1.3545    2.1106   -1.1640 O.2     1  UNL1       -0.2663
      2 O          -3.5898    1.3795    1.3641 O.2     1  UNL1       -0.4583
      3 O          -6.2896   -1.4564   -0.8731 O.3     1  UNL1       -0.4951
      4 N           2.5399   -0.0417   -0.4239 N.3     1  UNL1       -0.3019
      5 N          -1.6882   -0.0400   -0.1937 N.am    1  UNL1       -0.2617
      6 C          -0.3329   -0.5306   -0.1618 C.3     1  UNL1        0.0338
      7 C           0.3436   -0.3502   -1.5205 C.3     1  UNL1       -0.0210
      8 C           0.4796    0.1673    0.9293 C.3     1  UNL1       -0.0210
      9 C           1.8127   -0.7736   -1.4701 C.3     1  UNL1        0.0006
     10 C           1.9439   -0.2743    0.8990 C.3     1  UNL1        0.0006
     11 C           3.9527   -0.4210   -0.4223 C.3     1  UNL1        0.0029
     12 C           4.8190    0.6958    0.1610 C.3     1  UNL1       -0.0149
     13 C          -2.7853   -0.9736    0.0611 C.ar    1  UNL1        0.0404
     14 C          -1.9931    1.3246   -0.4654 C.2     1  UNL1        0.2864
     15 C           6.2810    0.3264    0.1483 C.ar    1  UNL1       -0.0462
     16 C          -4.0295   -0.7673   -0.5349 C.ar    1  UNL1        0.0015
     17 C          -2.5870   -2.0702    0.9001 C.ar    1  UNL1       -0.0400
     18 C          -3.2040    1.8862    0.1634 C.ar    1  UNL1        0.1896
     19 C          -5.0754   -1.6574   -0.2918 C.ar    1  UNL1        0.1219
     20 C           6.8440   -0.3311    1.2421 C.ar    1  UNL1       -0.0585
     21 C           7.0701    0.6421   -0.9576 C.ar    1  UNL1       -0.0585
     22 C          -3.6330   -2.9605    1.1430 C.ar    1  UNL1       -0.0565
     23 C          -4.8773   -2.7541    0.5471 C.ar    1  UNL1       -0.0198
     24 C          -4.0681    2.8758   -0.2437 C.ar    1  UNL1       -0.0113
     25 C           8.1965   -0.6726    1.2300 C.ar    1  UNL1       -0.0615
     26 C           8.4224    0.3005   -0.9697 C.ar    1  UNL1       -0.0615
     27 C          -5.0477    2.9845    0.7720 C.ar    1  UNL1       -0.0231
     28 C           8.9856   -0.3567    0.1242 C.ar    1  UNL1       -0.0617
     29 C          -4.7125    2.0532    1.7273 C.ar    1  UNL1        0.0928
     30 C          -6.4230   -0.3154   -1.7196 C.3     1  UNL1        0.0788
     31 H          -0.3073   -1.6078    0.0297 H       1  UNL1        0.0505
     32 H          -0.1822   -0.9405   -2.2813 H       1  UNL1        0.0296
     33 H           0.3151    0.6879   -1.8640 H       1  UNL1        0.0296
     34 H           0.4362    1.2578    0.8118 H       1  UNL1        0.0296
     35 H           0.0506   -0.0544    1.9143 H       1  UNL1        0.0296
     36 H           1.8805   -1.8574   -1.3070 H       1  UNL1        0.0427
     37 H           2.2561   -0.5641   -2.4515 H       1  UNL1        0.0427
     38 H           2.4748    0.2942    1.6702 H       1  UNL1        0.0427
     39 H           2.0093   -1.3347    1.1772 H       1  UNL1        0.0427
     40 H           4.2942   -0.5877   -1.4535 H       1  UNL1        0.0430
     41 H           4.1164   -1.3716    0.1031 H       1  UNL1        0.0430
     42 H           4.5285    0.9319    1.1917 H       1  UNL1        0.0326
     43 H           4.6741    1.6242   -0.4075 H       1  UNL1        0.0326
     44 H          -4.1311    0.0342   -1.2558 H       1  UNL1        0.0673
     45 H          -1.6526   -2.2450    1.4240 H       1  UNL1        0.0636
     46 H           6.2388   -0.5843    2.1085 H       1  UNL1        0.0620
     47 H           6.6425    1.1524   -1.8165 H       1  UNL1        0.0620
     48 H          -3.4826   -3.8083    1.8051 H       1  UNL1        0.0619
     49 H          -5.6890   -3.4495    0.7423 H       1  UNL1        0.0654
     50 H          -4.0049    3.4489   -1.1578 H       1  UNL1        0.0657
     51 H           8.6349   -1.1849    2.0814 H       1  UNL1        0.0618
     52 H           9.0369    0.5459   -1.8310 H       1  UNL1        0.0618
     53 H          -5.8931    3.6564    0.8033 H       1  UNL1        0.0649
     54 H          10.0385   -0.6228    0.1146 H       1  UNL1        0.0618
     55 H          -5.1475    1.7609    2.6718 H       1  UNL1        0.1029
     56 H          -7.4564   -0.3029   -2.0815 H       1  UNL1        0.0660
     57 H          -5.7792   -0.3909   -2.6024 H       1  UNL1        0.0660
     58 H          -6.2697    0.6177   -1.1680 H       1  UNL1        0.0660
@<TRIPOS>BOND
     1     1    14    2
     2     2    18   ar
     3     2    29   ar
     4     3    19    1
     5     3    30    1
     6     4     9    1
     7     4    10    1
     8     4    11    1
     9     5     6    1
    10     5    13    1
    11     5    14   am
    12     6     7    1
    13     6     8    1
    14     6    31    1
    15     7     9    1
    16     7    32    1
    17     7    33    1
    18     8    10    1
    19     8    34    1
    20     8    35    1
    21     9    36    1
    22     9    37    1
    23    10    38    1
    24    10    39    1
    25    11    12    1
    26    11    40    1
    27    11    41    1
    28    12    15    1
    29    12    42    1
    30    12    43    1
    31    13    16   ar
    32    13    17   ar
    33    14    18    1
    34    15    20   ar
    35    15    21   ar
    36    16    19   ar
    37    16    44    1
    38    17    22   ar
    39    17    45    1
    40    18    24   ar
    41    19    23   ar
    42    20    25   ar
    43    20    46    1
    44    21    26   ar
    45    21    47    1
    46    22    23   ar
    47    22    48    1
    48    23    49    1
    49    24    27   ar
    50    24    50    1
    51    25    28   ar
    52    25    51    1
    53    26    28   ar
    54    26    52    1
    55    27    29   ar
    56    27    53    1
    57    28    54    1
    58    29    55    1
    59    30    56    1
    60    30    57    1
    61    30    58    1
@<TRIPOS>MOLECULE
89982
 29 30 0 0 0
SMALL
GASTEIGER

@<TRIPOS>ATOM
      1 N           3.6956    0.1094    0.7173 N.3     1  UNL1       -0.3159
      2 N           0.2234   -0.6607   -0.2160 N.pl3   1  UNL1       -0.3409
      3 C           1.1956    0.2299   -0.8180 C.3     1  UNL1        0.0229
      4 C           2.4145   -0.5681   -1.2857 C.3     1  UNL1       -0.0220
      5 C           1.6059    1.3198    0.1751 C.3     1  UNL1       -0.0220
      6 C           3.2967   -1.0206   -0.1211 C.3     1  UNL1       -0.0024
      7 C           2.5315    0.7965    1.2753 C.3     1  UNL1       -0.0024
      8 C          -1.1181   -0.3516   -0.0873 C.ar    1  UNL1        0.0273
      9 C          -2.0177   -1.2592    0.5061 C.ar    1  UNL1       -0.0408
     10 C          -1.6258    0.8806   -0.5448 C.ar    1  UNL1       -0.0408
     11 C          -3.3710   -0.9472    0.6367 C.ar    1  UNL1       -0.0600
     12 C          -2.9790    1.1926   -0.4141 C.ar    1  UNL1       -0.0600
     13 C          -3.8516    0.2786    0.1767 C.ar    1  UNL1       -0.0616
     14 H           0.7738    0.6873   -1.7210 H       1  UNL1        0.0498
     15 H           3.0144    0.0612   -1.9568 H       1  UNL1        0.0295
     16 H           2.1023   -1.4431   -1.8688 H       1  UNL1        0.0295
     17 H           0.7399    1.8010    0.6418 H       1  UNL1        0.0295
     18 H           2.1356    2.1084   -0.3765 H       1  UNL1        0.0295
     19 H           2.7865   -1.7797    0.4836 H       1  UNL1        0.0425
     20 H           4.1991   -1.4941   -0.5238 H       1  UNL1        0.0425
     21 H           2.8780    1.6410    1.8812 H       1  UNL1        0.0425
     22 H           1.9840    0.1258    1.9487 H       1  UNL1        0.0425
     23 H           4.2836   -0.2281    1.4788 H       1  UNL1        0.1219
     24 H           0.5428   -1.5353    0.1850 H       1  UNL1        0.1463
     25 H          -1.6603   -2.2198    0.8706 H       1  UNL1        0.0636
     26 H          -0.9964    1.6311   -1.0131 H       1  UNL1        0.0636
     27 H          -4.0505   -1.6587    1.0966 H       1  UNL1        0.0618
     28 H          -3.3543    2.1470   -0.7721 H       1  UNL1        0.0618
     29 H          -4.9052    0.5216    0.2784 H       1  UNL1        0.0618
@<TRIPOS>BOND
     1     1     6    1
     2     1     7    1
     3     1    23    1
     4     2     3    1
     5     2     8    1
     6     2    24    1
     7     3     4    1
     8     3     5    1
     9     3    14    1
    10     4     6    1
    11     4    15    1
    12     4    16    1
    13     5     7    1
    14     5    17    1
    15     5    18    1
    16     6    19    1
    17     6    20    1
    18     7    21    1
    19     7    22    1
    20     8     9   ar
    21     8    10   ar
    22     9    11   ar
    23     9    25    1
    24    10    12   ar
    25    10    26    1
    26    11    13   ar
    27    11    27    1
    28    12    13   ar
    29    12    28    1
    30    13    29    1
@<TRIPOS>MOLECULE
10044685
 54 57 0 0 0
SMALL
GASTEIGER

@<TRIPOS>ATOM
      1 O          -2.4236    2.7987   -0.3817 O.2     1  UNL1       -0.2696
      2 N           2.7619    0.6942    0.9874 N.3     1  UNL1       -0.2980
      3 N          -1.3819    0.7133    0.1168 N.am    1  UNL1       -0.2643
      4 C          -0.0429    1.2039    0.3288 C.3     1  UNL1        0.0337
      5 C           0.9335    0.5910   -0.6755 C.3     1  UNL1       -0.0210
      6 C           0.4213    0.9196    1.7570 C.3     1  UNL1       -0.0210
      7 C           2.3712    1.0278   -0.3893 C.3     1  UNL1        0.0009
      8 C           1.8763    1.3444    1.9633 C.3     1  UNL1        0.0009
      9 C           4.1543    1.0714    1.2297 C.3     1  UNL1        0.0240
     10 C          -1.6411   -0.7204    0.2567 C.ar    1  UNL1        0.0369
     11 C          -2.4614    1.5789   -0.2247 C.2     1  UNL1        0.2511
     12 C           5.0467    0.3334    0.2789 C.ar    1  UNL1       -0.0334
     13 C          -1.5087   -1.4952   -0.8555 C.ar    1  UNL1       -0.0403
     14 C          -1.9952   -1.1779    1.4896 C.ar    1  UNL1       -0.0403
     15 C          -3.7912    0.9648   -0.4021 C.ar    1  UNL1        0.0372
     16 C           5.5636   -0.9075    0.6386 C.ar    1  UNL1       -0.0573
     17 C           5.3528    0.8939   -0.9574 C.ar    1  UNL1       -0.0573
     18 C          -1.7548   -2.8616   -0.7217 C.ar    1  UNL1       -0.0600
     19 C          -2.2411   -2.5444    1.6235 C.ar    1  UNL1       -0.0600
     20 C          -4.6356    0.8528    0.6893 C.ar    1  UNL1       -0.0496
     21 C          -4.1654    0.5134   -1.6561 C.ar    1  UNL1       -0.0496
     22 C           6.3947   -1.5944   -0.2464 C.ar    1  UNL1       -0.0615
     23 C           6.1838    0.2070   -1.8425 C.ar    1  UNL1       -0.0615
     24 C          -2.1210   -3.3862    0.5177 C.ar    1  UNL1       -0.0616
     25 C           6.7047   -1.0372   -1.4868 C.ar    1  UNL1       -0.0617
     26 C          -5.8926    0.2719    0.5214 C.ar    1  UNL1       -0.0610
     27 C          -5.4224   -0.0674   -1.8239 C.ar    1  UNL1       -0.0610
     28 C          -6.2859   -0.1882   -0.7352 C.ar    1  UNL1       -0.0617
     29 H          -0.0445    2.2916    0.1814 H       1  UNL1        0.0505
     30 H           0.6545    0.8777   -1.6969 H       1  UNL1        0.0296
     31 H           0.9166   -0.5042   -0.6368 H       1  UNL1        0.0296
     32 H           0.3648   -0.1483    1.9960 H       1  UNL1        0.0296
     33 H          -0.2217    1.4415    2.4761 H       1  UNL1        0.0296
     34 H           2.9551    0.4812   -1.1327 H       1  UNL1        0.0427
     35 H           2.4768    2.1026   -0.5865 H       1  UNL1        0.0427
     36 H           1.9533    2.4375    1.8936 H       1  UNL1        0.0427
     37 H           2.1735    1.0620    2.9807 H       1  UNL1        0.0427
     38 H           4.4435    0.8193    2.2584 H       1  UNL1        0.0476
     39 H           4.3064    2.1549    1.1284 H       1  UNL1        0.0476
     40 H          -1.2335   -1.0896   -1.8233 H       1  UNL1        0.0636
     41 H          -2.0994   -0.5253    2.3499 H       1  UNL1        0.0636
     42 H           5.3279   -1.3528    1.6013 H       1  UNL1        0.0621
     43 H           4.9736    1.8714   -1.2432 H       1  UNL1        0.0621
     44 H          -1.6639   -3.5166   -1.5833 H       1  UNL1        0.0618
     45 H          -2.5289   -2.9524    2.5880 H       1  UNL1        0.0618
     46 H          -4.3375    1.2110    1.6705 H       1  UNL1        0.0625
     47 H          -3.4997    0.6063   -2.5095 H       1  UNL1        0.0625
     48 H           6.8001   -2.5632    0.0303 H       1  UNL1        0.0618
     49 H           6.4291    0.6429   -2.8065 H       1  UNL1        0.0618
     50 H          -2.3140   -4.4499    0.6216 H       1  UNL1        0.0618
     51 H           7.3525   -1.5715   -2.1756 H       1  UNL1        0.0618
     52 H          -6.5650    0.1780    1.3691 H       1  UNL1        0.0618
     53 H          -5.7288   -0.4255   -2.8024 H       1  UNL1        0.0618
     54 H          -7.2646   -0.6406   -0.8659 H       1  UNL1        0.0618
@<TRIPOS>BOND
     1     1    11    2
     2     2     7    1
     3     2     8    1
     4     2     9    1
     5     3     4    1
     6     3    10    1
     7     3    11   am
     8     4     5    1
     9     4     6    1
    10     4    29    1
    11     5     7    1
    12     5    30    1
    13     5    31    1
    14     6     8    1
    15     6    32    1
    16     6    33    1
    17     7    34    1
    18     7    35    1
    19     8    36    1
    20     8    37    1
    21     9    12    1
    22     9    38    1
    23     9    39    1
    24    10    13   ar
    25    10    14   ar
    26    11    15    1
    27    12    16   ar
    28    12    17   ar
    29    13    18   ar
    30    13    40    1
    31    14    19   ar
    32    14    41    1
    33    15    20   ar
    34    15    21   ar
    35    16    22   ar
    36    16    42    1
    37    17    23   ar
    38    17    43    1
    39    18    24   ar
    40    18    44    1
    41    19    24   ar
    42    19    45    1
    43    20    26   ar
    44    20    46    1
    45    21    27   ar
    46    21    47    1
    47    22    25   ar
    48    22    48    1
    49    23    25   ar
    50    23    49    1
    51    24    50    1
    52    25    51    1
    53    26    28   ar
    54    26    52    1
    55    27    28   ar
    56    27    53    1
    57    28    54    1
@<TRIPOS>MOLECULE
137700013
 56 58 0 0 0
SMALL
GASTEIGER

@<TRIPOS>ATOM
      1 F          -6.6976   -3.0503   -0.1172 F       1  UNL1       -0.2055
      2 O          -1.7469    2.5203    0.9737 O.2     1  UNL1       -0.2750
      3 N           1.9168    0.1738   -0.2603 N.3     1  UNL1       -0.3019
      4 N          -2.2944    0.3854    0.1272 N.am    1  UNL1       -0.2681
      5 C          -0.9824   -0.1757   -0.0781 C.3     1  UNL1        0.0334
      6 C          -0.3106    0.4445   -1.3029 C.3     1  UNL1       -0.0210
      7 C          -0.1033    0.0130    1.1585 C.3     1  UNL1       -0.0210
      8 C           1.1205   -0.0690   -1.4712 C.3     1  UNL1        0.0006
      9 C           1.3205   -0.4873    0.9088 C.3     1  UNL1        0.0006
     10 C           3.2947   -0.2770   -0.4554 C.3     1  UNL1        0.0029
     11 C          -2.5326    1.7668    0.3890 C.2     1  UNL1        0.2226
     12 C           4.2546    0.4833    0.4603 C.3     1  UNL1       -0.0149
     13 C          -3.4456   -0.5125    0.0633 C.ar    1  UNL1        0.0367
     14 C          -3.8783    2.3333   -0.0890 C.3     1  UNL1        0.0305
     15 C           5.6821    0.0436    0.2534 C.ar    1  UNL1       -0.0462
     16 C          -3.7093   -1.2262   -1.1057 C.ar    1  UNL1       -0.0376
     17 C          -4.2804   -0.6562    1.1717 C.ar    1  UNL1       -0.0376
     18 C          -3.7243    2.9169   -1.4934 C.3     1  UNL1       -0.0543
     19 C          -4.3878    3.4199    0.8634 C.3     1  UNL1       -0.0543
     20 C          -4.8076   -2.0837   -1.1665 C.ar    1  UNL1       -0.0247
     21 C          -5.3788   -1.5138    1.1109 C.ar    1  UNL1       -0.0247
     22 C           6.2043   -1.0079    1.0066 C.ar    1  UNL1       -0.0585
     23 C           6.4802    0.6884   -0.6914 C.ar    1  UNL1       -0.0585
     24 C          -5.6423   -2.2276   -0.0583 C.ar    1  UNL1        0.1235
     25 C           7.5250   -1.4143    0.8151 C.ar    1  UNL1       -0.0615
     26 C           7.8006    0.2819   -0.8830 C.ar    1  UNL1       -0.0615
     27 C           8.3230   -0.7694   -0.1296 C.ar    1  UNL1       -0.0617
     28 H          -1.0774   -1.2565   -0.2516 H       1  UNL1        0.0505
     29 H          -0.2872    1.5391   -1.2202 H       1  UNL1        0.0296
     30 H          -0.8889    0.2175   -2.2067 H       1  UNL1        0.0296
     31 H          -0.0334    1.0620    1.4607 H       1  UNL1        0.0296
     32 H          -0.5378   -0.5249    2.0102 H       1  UNL1        0.0296
     33 H           1.1032   -1.1385   -1.7192 H       1  UNL1        0.0427
     34 H           1.5666    0.4567   -2.3244 H       1  UNL1        0.0427
     35 H           1.9052   -0.2826    1.8122 H       1  UNL1        0.0427
     36 H           1.3040   -1.5774    0.7760 H       1  UNL1        0.0427
     37 H           3.3884   -1.3632   -0.3217 H       1  UNL1        0.0430
     38 H           3.6090   -0.0757   -1.4891 H       1  UNL1        0.0430
     39 H           3.9967    0.3430    1.5168 H       1  UNL1        0.0326
     40 H           4.1773    1.5635    0.2775 H       1  UNL1        0.0326
     41 H          -4.6586    1.5740   -0.1366 H       1  UNL1        0.0389
     42 H          -3.0726   -1.1197   -1.9796 H       1  UNL1        0.0637
     43 H          -4.0832   -0.1102    2.0906 H       1  UNL1        0.0637
     44 H          -2.9754    3.7165   -1.5119 H       1  UNL1        0.0237
     45 H          -3.3965    2.1452   -2.1985 H       1  UNL1        0.0237
     46 H          -4.6727    3.3265   -1.8560 H       1  UNL1        0.0237
     47 H          -4.4809    3.0260    1.8813 H       1  UNL1        0.0237
     48 H          -5.3721    3.7826    0.5488 H       1  UNL1        0.0237
     49 H          -3.7077    4.2781    0.8995 H       1  UNL1        0.0237
     50 H          -5.0143   -2.6382   -2.0770 H       1  UNL1        0.0647
     51 H          -6.0284   -1.6267    1.9737 H       1  UNL1        0.0647
     52 H           5.5916   -1.5194    1.7442 H       1  UNL1        0.0620
     53 H           6.0841    1.5076   -1.2856 H       1  UNL1        0.0620
     54 H           7.9316   -2.2333    1.4012 H       1  UNL1        0.0618
     55 H           8.4220    0.7836   -1.6190 H       1  UNL1        0.0618
     56 H           9.3511   -1.0860   -0.2789 H       1  UNL1        0.0618
@<TRIPOS>BOND
     1     1    24    1
     2     2    11    2
     3     3     8    1
     4     3     9    1
     5     3    10    1
     6     4     5    1
     7     4    11   am
     8     4    13    1
     9     5     6    1
    10     5     7    1
    11     5    28    1
    12     6     8    1
    13     6    29    1
    14     6    30    1
    15     7     9    1
    16     7    31    1
    17     7    32    1
    18     8    33    1
    19     8    34    1
    20     9    35    1
    21     9    36    1
    22    10    12    1
    23    10    37    1
    24    10    38    1
    25    11    14    1
    26    12    15    1
    27    12    39    1
    28    12    40    1
    29    13    16   ar
    30    13    17   ar
    31    14    18    1
    32    14    19    1
    33    14    41    1
    34    15    22   ar
    35    15    23   ar
    36    16    20   ar
    37    16    42    1
    38    17    21   ar
    39    17    43    1
    40    18    44    1
    41    18    45    1
    42    18    46    1
    43    19    47    1
    44    19    48    1
    45    19    49    1
    46    20    24   ar
    47    20    50    1
    48    21    24   ar
    49    21    51    1
    50    22    25   ar
    51    22    52    1
    52    23    26   ar
    53    23    53    1
    54    25    27   ar
    55    25    54    1
    56    26    27   ar
    57    26    55    1
    58    27    56    1
@<TRIPOS>MOLECULE
137700051
 57 59 0 0 0
SMALL
GASTEIGER

@<TRIPOS>ATOM
      1 O          -1.8676    2.4149   -0.0134 O.2     1  UNL1       -0.2727
      2 O          -4.2812    3.2543    0.2840 O.3     1  UNL1       -0.3738
      3 N           1.8489    0.0777   -0.2917 N.3     1  UNL1       -0.3019
      4 N          -2.3710    0.0986    0.0573 N.am    1  UNL1       -0.2661
      5 C          -1.0256   -0.4093   -0.0452 C.3     1  UNL1        0.0335
      6 C          -0.3806    0.0196   -1.3628 C.3     1  UNL1       -0.0210
      7 C          -0.1714    0.0526    1.1357 C.3     1  UNL1       -0.0210
      8 C           1.0803   -0.4276   -1.4376 C.3     1  UNL1        0.0006
      9 C           1.2823   -0.3968    0.9785 C.3     1  UNL1        0.0006
     10 C           3.2532   -0.3160   -0.4041 C.3     1  UNL1        0.0029
     11 C           4.1567    0.6541    0.3578 C.3     1  UNL1       -0.0149
     12 C          -3.4696   -0.8575    0.1586 C.ar    1  UNL1        0.0395
     13 C          -2.6783    1.4871    0.0643 C.2     1  UNL1        0.2458
     14 C          -4.1047   -1.3411   -0.9850 C.ar    1  UNL1       -0.0290
     15 C           5.6101    0.2721    0.2317 C.ar    1  UNL1       -0.0462
     16 C          -3.8823   -1.2867    1.4200 C.ar    1  UNL1       -0.0400
     17 C          -4.1420    1.8503    0.2355 C.3     1  UNL1        0.1238
     18 C          -5.1527   -2.2541   -0.8675 C.ar    1  UNL1       -0.0571
     19 C          -3.6839   -0.8988   -2.3490 C.3     1  UNL1       -0.0379
     20 C          -4.9303   -2.1997    1.5377 C.ar    1  UNL1       -0.0600
     21 C           6.1874   -0.5924    1.1617 C.ar    1  UNL1       -0.0585
     22 C           6.3769    0.7833   -0.8152 C.ar    1  UNL1       -0.0585
     23 C          -5.5655   -2.6835    0.3939 C.ar    1  UNL1       -0.0614
     24 C           7.5319   -0.9455    1.0448 C.ar    1  UNL1       -0.0615
     25 C           7.7212    0.4302   -0.9321 C.ar    1  UNL1       -0.0615
     26 C           8.2987   -0.4341   -0.0020 C.ar    1  UNL1       -0.0617
     27 C          -5.6410    3.6482    0.4443 C.3     1  UNL1        0.0371
     28 H          -1.0644   -1.5075   -0.0277 H       1  UNL1        0.0505
     29 H          -0.4154    1.1071   -1.4943 H       1  UNL1        0.0296
     30 H          -0.9212   -0.4065   -2.2132 H       1  UNL1        0.0296
     31 H          -0.5794   -0.3520    2.0704 H       1  UNL1        0.0296
     32 H          -0.1860    1.1431    1.2435 H       1  UNL1        0.0296
     33 H           1.1298   -1.5234   -1.4880 H       1  UNL1        0.0427
     34 H           1.5026   -0.0389   -2.3726 H       1  UNL1        0.0427
     35 H           1.3328   -1.4919    1.0448 H       1  UNL1        0.0427
     36 H           1.8446    0.0033    1.8292 H       1  UNL1        0.0427
     37 H           3.5648   -0.2857   -1.4577 H       1  UNL1        0.0430
     38 H           3.4109   -1.3525   -0.0765 H       1  UNL1        0.0430
     39 H           3.8976    0.6912    1.4226 H       1  UNL1        0.0326
     40 H           4.0163    1.6768   -0.0170 H       1  UNL1        0.0326
     41 H          -3.3941   -0.9166    2.3178 H       1  UNL1        0.0636
     42 H          -4.7148    1.4645   -0.6133 H       1  UNL1        0.0657
     43 H          -4.5144    1.4291    1.1742 H       1  UNL1        0.0657
     44 H          -5.6558   -2.6417   -1.7495 H       1  UNL1        0.0621
     45 H          -3.3879    0.1534   -2.3764 H       1  UNL1        0.0278
     46 H          -2.8578   -1.5214   -2.7049 H       1  UNL1        0.0278
     47 H          -4.5096   -0.9991   -3.0630 H       1  UNL1        0.0278
     48 H          -5.2516   -2.5340    2.5198 H       1  UNL1        0.0618
     49 H           5.5996   -0.9989    1.9804 H       1  UNL1        0.0620
     50 H           5.9379    1.4562   -1.5471 H       1  UNL1        0.0620
     51 H          -6.3811   -3.3948    0.4856 H       1  UNL1        0.0618
     52 H           7.9815   -1.6190    1.7686 H       1  UNL1        0.0618
     53 H           8.3183    0.8279   -1.7475 H       1  UNL1        0.0618
     54 H           9.3454   -0.7092   -0.0932 H       1  UNL1        0.0618
     55 H          -5.6806    4.7403    0.4737 H       1  UNL1        0.0524
     56 H          -6.0440    3.2572    1.3834 H       1  UNL1        0.0524
     57 H          -6.2423    3.2981   -0.4002 H       1  UNL1        0.0524
@<TRIPOS>BOND
     1     1    13    2
     2     2    17    1
     3     2    27    1
     4     3     8    1
     5     3     9    1
     6     3    10    1
     7     4     5    1
     8     4    12    1
     9     4    13   am
    10     5     6    1
    11     5     7    1
    12     5    28    1
    13     6     8    1
    14     6    29    1
    15     6    30    1
    16     7     9    1
    17     7    31    1
    18     7    32    1
    19     8    33    1
    20     8    34    1
    21     9    35    1
    22     9    36    1
    23    10    11    1
    24    10    37    1
    25    10    38    1
    26    11    15    1
    27    11    39    1
    28    11    40    1
    29    12    14   ar
    30    12    16   ar
    31    13    17    1
    32    14    18   ar
    33    14    19    1
    34    15    21   ar
    35    15    22   ar
    36    16    20   ar
    37    16    41    1
    38    17    42    1
    39    17    43    1
    40    18    23   ar
    41    18    44    1
    42    19    45    1
    43    19    46    1
    44    19    47    1
    45    20    23   ar
    46    20    48    1
    47    21    24   ar
    48    21    49    1
    49    22    25   ar
    50    22    50    1
    51    23    51    1
    52    24    26   ar
    53    24    52    1
    54    25    26   ar
    55    25    53    1
    56    26    54    1
    57    27    55    1
    58    27    56    1
    59    27    57    1
@<TRIPOS>MOLECULE
71749220
 38 39 0 0 0
SMALL
GASTEIGER

@<TRIPOS>ATOM
      1 O          -1.0584    1.9208    1.2037 O.2     1  UNL1       -0.2752
      2 O          -0.1457    3.7344   -1.1994 O.3     1  UNL1       -0.3945
      3 N          -0.0176    0.0116    0.2669 N.am    1  UNL1       -0.2682
      4 N          -4.0682   -1.1446   -0.1354 N.3     1  UNL1       -0.3159
      5 C          -1.1673   -0.8130   -0.0096 C.3     1  UNL1        0.0334
      6 C          -2.0078   -0.2242   -1.1444 C.3     1  UNL1       -0.0213
      7 C          -2.0231   -0.9930    1.2454 C.3     1  UNL1       -0.0213
      8 C          -3.2831   -1.0356   -1.3654 C.3     1  UNL1       -0.0024
      9 C          -3.2983   -1.7755    0.9371 C.3     1  UNL1       -0.0024
     10 C           1.2996   -0.5917    0.0842 C.ar    1  UNL1        0.0366
     11 C          -0.1152    1.3929    0.6091 C.2     1  UNL1        0.2222
     12 C           1.0960    2.2417    0.2215 C.3     1  UNL1        0.0476
     13 C           2.2153   -0.5987    1.1364 C.ar    1  UNL1       -0.0403
     14 C           1.6422   -1.1607   -1.1423 C.ar    1  UNL1       -0.0403
     15 C           0.7409    3.6911   -0.0887 C.3     1  UNL1        0.0525
     16 C           3.4738   -1.1748    0.9621 C.ar    1  UNL1       -0.0600
     17 C           2.9005   -1.7368   -1.3167 C.ar    1  UNL1       -0.0600
     18 C           3.8163   -1.7438   -0.2645 C.ar    1  UNL1       -0.0616
     19 H          -0.8342   -1.8138   -0.3168 H       1  UNL1        0.0505
     20 H          -1.4244   -0.1997   -2.0727 H       1  UNL1        0.0296
     21 H          -2.2851    0.8156   -0.9291 H       1  UNL1        0.0296
     22 H          -1.4475   -1.5197    2.0166 H       1  UNL1        0.0296
     23 H          -2.3124   -0.0321    1.6831 H       1  UNL1        0.0296
     24 H          -3.8946   -0.5528   -2.1355 H       1  UNL1        0.0425
     25 H          -3.0384   -2.0365   -1.7413 H       1  UNL1        0.0425
     26 H          -3.0548   -2.8090    0.6622 H       1  UNL1        0.0425
     27 H          -3.9209   -1.8299    1.8370 H       1  UNL1        0.0425
     28 H          -4.3450   -0.2091    0.1633 H       1  UNL1        0.1219
     29 H           1.8147    2.2156    1.0467 H       1  UNL1        0.0381
     30 H           1.5651    1.8251   -0.6758 H       1  UNL1        0.0381
     31 H           1.9585   -0.1675    2.1005 H       1  UNL1        0.0636
     32 H           0.9458   -1.1558   -1.9763 H       1  UNL1        0.0636
     33 H           0.2609    4.1861    0.7615 H       1  UNL1        0.0562
     34 H           1.6414    4.2546   -0.3507 H       1  UNL1        0.0562
     35 H           4.1861   -1.1820    1.7819 H       1  UNL1        0.0618
     36 H           3.1683   -2.1779   -2.2723 H       1  UNL1        0.0618
     37 H           4.7961   -2.1922   -0.4004 H       1  UNL1        0.0618
     38 H          -0.9821    3.3197   -0.9285 H       1  UNL1        0.2094
@<TRIPOS>BOND
     1     1    11    2
     2     2    15    1
     3     2    38    1
     4     3     5    1
     5     3    10    1
     6     3    11   am
     7     4     8    1
     8     4     9    1
     9     4    28    1
    10     5     6    1
    11     5     7    1
    12     5    19    1
    13     6     8    1
    14     6    20    1
    15     6    21    1
    16     7     9    1
    17     7    22    1
    18     7    23    1
    19     8    24    1
    20     8    25    1
    21     9    26    1
    22     9    27    1
    23    10    13   ar
    24    10    14   ar
    25    11    12    1
    26    12    15    1
    27    12    29    1
    28    12    30    1
    29    13    16   ar
    30    13    31    1
    31    14    17   ar
    32    14    32    1
    33    15    33    1
    34    15    34    1
    35    16    18   ar
    36    16    35    1
    37    17    18   ar
    38    17    36    1
    39    18    37    1
@<TRIPOS>MOLECULE
137699864
 56 58 0 0 0
SMALL
GASTEIGER

@<TRIPOS>ATOM
      1 O          -2.2022    2.2515   -1.1696 O.2     1  UNL1       -0.2752
      2 N           1.5966   -0.0597   -0.4631 N.3     1  UNL1       -0.3019
      3 N          -2.6328    0.0835   -0.3175 N.am    1  UNL1       -0.2683
      4 C          -1.2951   -0.4494   -0.2464 C.3     1  UNL1        0.0334
      5 C          -0.5872   -0.3253   -1.5954 C.3     1  UNL1       -0.0210
      6 C          -0.4814    0.2494    0.8431 C.3     1  UNL1       -0.0210
      7 C           0.8661   -0.7942   -1.5053 C.3     1  UNL1        0.0006
      8 C           0.9681   -0.2395    0.8530 C.3     1  UNL1        0.0006
      9 C           2.9960   -0.4840   -0.4239 C.3     1  UNL1        0.0029
     10 C           3.8869    0.6188    0.1488 C.3     1  UNL1       -0.0149
     11 C          -3.7366   -0.8365   -0.0561 C.ar    1  UNL1        0.0366
     12 C          -2.9090    1.4664   -0.5324 C.2     1  UNL1        0.2200
     13 C          -4.2265    1.9612    0.0603 C.3     1  UNL1        0.0242
     14 C           5.3360    0.2024    0.1744 C.ar    1  UNL1       -0.0462
     15 C          -3.7769   -1.5562    1.1379 C.ar    1  UNL1       -0.0403
     16 C          -4.7499   -0.9963   -1.0013 C.ar    1  UNL1       -0.0403
     17 C          -4.1741    3.4344    0.4674 C.3     1  UNL1       -0.0476
     18 C           5.8563   -0.4449    1.2951 C.ar    1  UNL1       -0.0585
     19 C           6.1561    0.4645   -0.9229 C.ar    1  UNL1       -0.0585
     20 C          -4.8303   -2.4361    1.3867 C.ar    1  UNL1       -0.0600
     21 C          -5.8034   -1.8761   -0.7526 C.ar    1  UNL1       -0.0600
     22 C          -3.1235    3.6799    1.5382 C.3     1  UNL1       -0.0648
     23 C          -5.8436   -2.5959    0.4415 C.ar    1  UNL1       -0.0616
     24 C           7.1969   -0.8298    1.3185 C.ar    1  UNL1       -0.0615
     25 C           7.4965    0.0796   -0.8996 C.ar    1  UNL1       -0.0615
     26 C           8.0169   -0.5675    0.2212 C.ar    1  UNL1       -0.0617
     27 H          -1.3405   -1.5200   -0.0045 H       1  UNL1        0.0505
     28 H          -0.5871    0.7064   -1.9622 H       1  UNL1        0.0296
     29 H          -1.1172   -0.9189   -2.3506 H       1  UNL1        0.0296
     30 H          -0.9345    0.0703    1.8257 H       1  UNL1        0.0296
     31 H          -0.4828    1.3372    0.6981 H       1  UNL1        0.0296
     32 H           0.8950   -1.8751   -1.3138 H       1  UNL1        0.0427
     33 H           1.3346   -0.6238   -2.4825 H       1  UNL1        0.0427
     34 H           1.5024    0.3309    1.6204 H       1  UNL1        0.0427
     35 H           0.9934   -1.2941    1.1585 H       1  UNL1        0.0427
     36 H           3.1185   -1.4258    0.1279 H       1  UNL1        0.0430
     37 H           3.3516   -0.6876   -1.4437 H       1  UNL1        0.0430
     38 H           3.5846    0.8900    1.1674 H       1  UNL1        0.0326
     39 H           3.7833    1.5367   -0.4452 H       1  UNL1        0.0326
     40 H          -4.4992    1.3788    0.9460 H       1  UNL1        0.0358
     41 H          -5.0093    1.8301   -0.6945 H       1  UNL1        0.0358
     42 H          -3.0018   -1.4375    1.8900 H       1  UNL1        0.0636
     43 H          -4.7263   -0.4493   -1.9402 H       1  UNL1        0.0636
     44 H          -3.9601    4.0651   -0.4031 H       1  UNL1        0.0267
     45 H          -5.1566    3.7347    0.8493 H       1  UNL1        0.0267
     46 H           5.2267   -0.6565    2.1553 H       1  UNL1        0.0620
     47 H           5.7619    0.9664   -1.8026 H       1  UNL1        0.0620
     48 H          -4.8629   -2.9950    2.3174 H       1  UNL1        0.0618
     49 H          -6.5912   -2.0022   -1.4895 H       1  UNL1        0.0618
     50 H          -3.2993    3.0470    2.4141 H       1  UNL1        0.0230
     51 H          -3.1622    4.7239    1.8658 H       1  UNL1        0.0230
     52 H          -2.1103    3.4878    1.1738 H       1  UNL1        0.0230
     53 H          -6.6639   -3.2808    0.6353 H       1  UNL1        0.0618
     54 H           7.6020   -1.3342    2.1909 H       1  UNL1        0.0618
     55 H           8.1351    0.2832   -1.7542 H       1  UNL1        0.0618
     56 H           9.0606   -0.8674    0.2392 H       1  UNL1        0.0618
@<TRIPOS>BOND
     1     1    12    2
     2     2     7    1
     3     2     8    1
     4     2     9    1
     5     3     4    1
     6     3    11    1
     7     3    12   am
     8     4     5    1
     9     4     6    1
    10     4    27    1
    11     5     7    1
    12     5    28    1
    13     5    29    1
    14     6     8    1
    15     6    30    1
    16     6    31    1
    17     7    32    1
    18     7    33    1
    19     8    34    1
    20     8    35    1
    21     9    10    1
    22     9    36    1
    23     9    37    1
    24    10    14    1
    25    10    38    1
    26    10    39    1
    27    11    15   ar
    28    11    16   ar
    29    12    13    1
    30    13    17    1
    31    13    40    1
    32    13    41    1
    33    14    18   ar
    34    14    19   ar
    35    15    20   ar
    36    15    42    1
    37    16    21   ar
    38    16    43    1
    39    17    22    1
    40    17    44    1
    41    17    45    1
    42    18    24   ar
    43    18    46    1
    44    19    25   ar
    45    19    47    1
    46    20    23   ar
    47    20    48    1
    48    21    23   ar
    49    21    49    1
    50    22    50    1
    51    22    51    1
    52    22    52    1
    53    23    53    1
    54    24    26   ar
    55    24    54    1
    56    25    26   ar
    57    25    55    1
    58    26    56    1
@<TRIPOS>MOLECULE
527022
 37 38 0 0 0
SMALL
GASTEIGER

@<TRIPOS>ATOM
      1 O          -0.4401   -3.3687    0.1293 O.2     1  UNL1       -0.2756
      2 N           3.2838    0.8726   -0.1931 N.3     1  UNL1       -0.3052
      3 N          -0.4978   -0.9944    0.1849 N.am    1  UNL1       -0.2685
      4 C           0.9153   -0.7584    0.3459 C.3     1  UNL1        0.0334
      5 C           1.1739    0.5677    1.0617 C.3     1  UNL1       -0.0210
      6 C           1.6277   -0.7759   -1.0063 C.3     1  UNL1       -0.0210
      7 C           2.6708    0.8721    1.1424 C.3     1  UNL1        0.0003
      8 C           3.1095   -0.4261   -0.8581 C.3     1  UNL1        0.0003
      9 C           4.7031    1.2152   -0.1044 C.3     1  UNL1       -0.0128
     10 C          -1.3627    0.1719    0.0220 C.ar    1  UNL1        0.0365
     11 C          -1.0556   -2.3004    0.0897 C.2     1  UNL1        0.2169
     12 C          -1.9527    0.6819    1.1400 C.ar    1  UNL1       -0.0403
     13 C          -1.5193    0.6708   -1.2368 C.ar    1  UNL1       -0.0403
     14 C          -2.5615   -2.3566   -0.0276 C.3     1  UNL1        0.0127
     15 C          -2.7775    1.7960    0.9844 C.ar    1  UNL1       -0.0600
     16 C          -2.3440    1.7849   -1.3923 C.ar    1  UNL1       -0.0600
     17 C          -2.9731    2.3475   -0.2818 C.ar    1  UNL1       -0.0616
     18 H           1.3202   -1.5769    0.9559 H       1  UNL1        0.0505
     19 H           0.7643    0.5410    2.0788 H       1  UNL1        0.0296
     20 H           0.7167    1.4198    0.5445 H       1  UNL1        0.0296
     21 H           1.1732   -0.0602   -1.7005 H       1  UNL1        0.0296
     22 H           1.5302   -1.7634   -1.4735 H       1  UNL1        0.0296
     23 H           2.7956    1.8571    1.6088 H       1  UNL1        0.0427
     24 H           3.1604    0.1387    1.7968 H       1  UNL1        0.0427
     25 H           3.6213   -1.2224   -0.3017 H       1  UNL1        0.0427
     26 H           3.5542   -0.3926   -1.8602 H       1  UNL1        0.0427
     27 H           5.2683    0.4890    0.4909 H       1  UNL1        0.0391
     28 H           4.8324    2.2057    0.3460 H       1  UNL1        0.0391
     29 H           5.1502    1.2649   -1.1035 H       1  UNL1        0.0391
     30 H          -1.8048    0.2512    2.1247 H       1  UNL1        0.0636
     31 H          -1.0492    0.2273   -2.1072 H       1  UNL1        0.0636
     32 H          -2.9032   -1.8543   -0.9356 H       1  UNL1        0.0323
     33 H          -3.0355   -1.9242    0.8566 H       1  UNL1        0.0323
     34 H          -2.8765   -3.4035   -0.0937 H       1  UNL1        0.0323
     35 H          -3.2684    2.2332    1.8490 H       1  UNL1        0.0618
     36 H          -2.5000    2.2116   -2.3789 H       1  UNL1        0.0618
     37 H          -3.6163    3.2141   -0.4032 H       1  UNL1        0.0618
@<TRIPOS>BOND
     1     1    11    2
     2     2     7    1
     3     2     8    1
     4     2     9    1
     5     3     4    1
     6     3    10    1
     7     3    11   am
     8     4     5    1
     9     4     6    1
    10     4    18    1
    11     5     7    1
    12     5    19    1
    13     5    20    1
    14     6     8    1
    15     6    21    1
    16     6    22    1
    17     7    23    1
    18     7    24    1
    19     8    25    1
    20     8    26    1
    21     9    27    1
    22     9    28    1
    23     9    29    1
    24    10    12   ar
    25    10    13   ar
    26    11    14    1
    27    12    15   ar
    28    12    30    1
    29    13    16   ar
    30    13    31    1
    31    14    32    1
    32    14    33    1
    33    14    34    1
    34    15    17   ar
    35    15    35    1
    36    16    17   ar
    37    16    36    1
    38    17    37    1
@<TRIPOS>MOLECULE
615726
 53 55 0 0 0
SMALL
GASTEIGER

@<TRIPOS>ATOM
      1 O          -4.0089   -3.1913    0.0354 O.2     1  UNL1       -0.2756
      2 N           0.9132   -0.4623   -0.4992 N.3     1  UNL1       -0.3016
      3 N          -3.2415   -0.9464    0.1589 N.am    1  UNL1       -0.2685
      4 C          -1.8258   -1.2154    0.2017 C.3     1  UNL1        0.0334
      5 C          -1.0749   -0.0984    0.9271 C.3     1  UNL1       -0.0210
      6 C          -1.2639   -1.4002   -1.2076 C.3     1  UNL1       -0.0210
      7 C           0.4370   -0.3273    0.8844 C.3     1  UNL1        0.0006
      8 C           0.2543   -1.5851   -1.1806 C.3     1  UNL1        0.0006
      9 C           2.3662   -0.6294   -0.5260 C.3     1  UNL1        0.0055
     10 C           3.0996    0.5324    0.1743 C.3     1  UNL1       -0.0059
     11 C          -3.6615    0.4520    0.1035 C.ar    1  UNL1        0.0365
     12 C           4.6026    0.2965    0.1683 C.ar    1  UNL1       -0.0433
     13 C           2.7631    1.9005   -0.4331 C.3     1  UNL1       -0.0572
     14 C          -4.2201   -1.9767    0.0783 C.2     1  UNL1        0.2169
     15 C          -3.9564    1.0699    1.2822 C.ar    1  UNL1       -0.0403
     16 C          -3.7290    1.0432   -1.1229 C.ar    1  UNL1       -0.0403
     17 C           5.1587   -0.4903    1.1565 C.ar    1  UNL1       -0.0583
     18 C           5.3655    0.8757   -0.8254 C.ar    1  UNL1       -0.0583
     19 C          -5.6576   -1.5097    0.0918 C.3     1  UNL1        0.0127
     20 C          -4.3569    2.4050    1.2296 C.ar    1  UNL1       -0.0600
     21 C          -4.1294    2.3784   -1.1755 C.ar    1  UNL1       -0.0600
     22 C           6.5366   -0.7069    1.1512 C.ar    1  UNL1       -0.0615
     23 C           6.7434    0.6591   -0.8309 C.ar    1  UNL1       -0.0615
     24 C          -4.4433    3.0592    0.0008 C.ar    1  UNL1       -0.0616
     25 C           7.3289   -0.1323    0.1574 C.ar    1  UNL1       -0.0617
     26 H          -1.6838   -2.1551    0.7519 H       1  UNL1        0.0505
     27 H          -1.3942   -0.0407    1.9749 H       1  UNL1        0.0296
     28 H          -1.2485    0.8856    0.4747 H       1  UNL1        0.0296
     29 H          -1.4936   -0.5353   -1.8400 H       1  UNL1        0.0296
     30 H          -1.7293   -2.2680   -1.6907 H       1  UNL1        0.0296
     31 H           0.8638    0.5423    1.3900 H       1  UNL1        0.0427
     32 H           0.6942   -1.2148    1.4775 H       1  UNL1        0.0427
     33 H           0.4989   -2.5379   -0.6925 H       1  UNL1        0.0427
     34 H           0.6085   -1.6504   -2.2167 H       1  UNL1        0.0427
     35 H           2.7047   -0.6833   -1.5697 H       1  UNL1        0.0432
     36 H           2.6513   -1.5814   -0.0569 H       1  UNL1        0.0432
     37 H           2.8349    0.5838    1.2368 H       1  UNL1        0.0359
     38 H           1.7271    2.1769   -0.2067 H       1  UNL1        0.0236
     39 H           2.8510    1.9073   -1.5251 H       1  UNL1        0.0236
     40 H           3.3947    2.6971   -0.0230 H       1  UNL1        0.0236
     41 H          -3.8938    0.5609    2.2383 H       1  UNL1        0.0636
     42 H          -3.5054    0.5150   -2.0428 H       1  UNL1        0.0636
     43 H           4.5490   -0.9436    1.9325 H       1  UNL1        0.0620
     44 H           4.9518    1.4764   -1.6269 H       1  UNL1        0.0620
     45 H          -5.8710   -0.8719   -0.7691 H       1  UNL1        0.0323
     46 H          -5.8878   -0.9909    1.0254 H       1  UNL1        0.0323
     47 H          -6.3177   -2.3811    0.0259 H       1  UNL1        0.0323
     48 H          -4.6026    2.9346    2.1454 H       1  UNL1        0.0618
     49 H          -4.2012    2.8866   -2.1327 H       1  UNL1        0.0618
     50 H           6.9924   -1.3239    1.9200 H       1  UNL1        0.0618
     51 H           7.3604    1.1014   -1.6077 H       1  UNL1        0.0618
     52 H          -4.7565    4.0983   -0.0403 H       1  UNL1        0.0618
     53 H           8.4015   -0.3023    0.1522 H       1  UNL1        0.0618
@<TRIPOS>BOND
     1     1    14    2
     2     2     7    1
     3     2     8    1
     4     2     9    1
     5     3     4    1
     6     3    11    1
     7     3    14   am
     8     4     5    1
     9     4     6    1
    10     4    26    1
    11     5     7    1
    12     5    27    1
    13     5    28    1
    14     6     8    1
    15     6    29    1
    16     6    30    1
    17     7    31    1
    18     7    32    1
    19     8    33    1
    20     8    34    1
    21     9    10    1
    22     9    35    1
    23     9    36    1
    24    10    12    1
    25    10    13    1
    26    10    37    1
    27    11    15   ar
    28    11    16   ar
    29    12    17   ar
    30    12    18   ar
    31    13    38    1
    32    13    39    1
    33    13    40    1
    34    14    19    1
    35    15    20   ar
    36    15    41    1
    37    16    21   ar
    38    16    42    1
    39    17    22   ar
    40    17    43    1
    41    18    23   ar
    42    18    44    1
    43    19    45    1
    44    19    46    1
    45    19    47    1
    46    20    24   ar
    47    20    48    1
    48    21    24   ar
    49    21    49    1
    50    22    25   ar
    51    22    50    1
    52    23    25   ar
    53    23    51    1
    54    24    52    1
    55    25    53    1
@<TRIPOS>MOLECULE
137700053
 59 61 0 0 0
SMALL
GASTEIGER

@<TRIPOS>ATOM
      1 O          -5.0658    0.6965   -0.1372 O.2     1  UNL1       -0.2747
      2 N           1.4158    0.0149    0.3346 N.3     1  UNL1       -0.3019
      3 N          -2.8025    0.1965    0.0147 N.am    1  UNL1       -0.2678
      4 C          -1.4358    0.6390    0.1356 C.3     1  UNL1        0.0334
      5 C          -0.6080    0.2066   -1.0749 C.3     1  UNL1       -0.0210
      6 C          -0.8040    0.1102    1.4230 C.3     1  UNL1       -0.0210
      7 C           0.8647    0.5831   -0.9034 C.3     1  UNL1        0.0006
      8 C           0.6754    0.4888    1.5121 C.3     1  UNL1        0.0006
      9 C           2.8365    0.3405    0.4588 C.3     1  UNL1        0.0029
     10 C          -3.6243    2.6213    0.0308 C.3     1  UNL1        0.0391
     11 C          -3.8955    1.0900   -0.0332 C.2     1  UNL1        0.2254
     12 C          -3.0684   -1.2373   -0.0613 C.ar    1  UNL1        0.0366
     13 C           3.6933   -0.6242   -0.3618 C.3     1  UNL1       -0.0149
     14 C          -2.8254    2.9839    1.2904 C.3     1  UNL1       -0.0517
     15 C          -4.8888    3.4836   -0.1053 C.3     1  UNL1       -0.0517
     16 C          -2.7290    2.9645   -1.1894 C.3     1  UNL1       -0.0517
     17 C           5.1625   -0.3132   -0.2250 C.ar    1  UNL1       -0.0462
     18 C          -3.1041   -1.8751   -1.3013 C.ar    1  UNL1       -0.0403
     19 C          -3.2868   -1.9691    1.1058 C.ar    1  UNL1       -0.0403
     20 C          -3.3584   -3.2447   -1.3742 C.ar    1  UNL1       -0.0600
     21 C          -3.5410   -3.3386    1.0331 C.ar    1  UNL1       -0.0600
     22 C           5.7728    0.5756   -1.1100 C.ar    1  UNL1       -0.0585
     23 C           5.9111   -0.9144    0.7867 C.ar    1  UNL1       -0.0585
     24 C          -3.5769   -3.9765   -0.2070 C.ar    1  UNL1       -0.0616
     25 C           7.1319    0.8631   -0.9834 C.ar    1  UNL1       -0.0615
     26 C           7.2701   -0.6269    0.9134 C.ar    1  UNL1       -0.0615
     27 C           7.8805    0.2617    0.0283 C.ar    1  UNL1       -0.0617
     28 H          -1.3113    1.7011    0.1960 H       1  UNL1        0.0505
     29 H          -0.9972    0.6579   -1.9945 H       1  UNL1        0.0296
     30 H          -0.6448   -0.8793   -1.2186 H       1  UNL1        0.0296
     31 H          -0.8532   -0.9838    1.4707 H       1  UNL1        0.0296
     32 H          -1.3318    0.4825    2.3076 H       1  UNL1        0.0296
     33 H           0.9637    1.6769   -0.9112 H       1  UNL1        0.0427
     34 H           1.4051    0.2053   -1.7782 H       1  UNL1        0.0427
     35 H           1.0847    0.0296    2.4205 H       1  UNL1        0.0427
     36 H           0.7736    1.5767    1.6243 H       1  UNL1        0.0427
     37 H           3.0378    1.3857    0.1877 H       1  UNL1        0.0430
     38 H           3.1514    0.2385    1.5068 H       1  UNL1        0.0430
     39 H           3.4279   -0.5910   -1.4252 H       1  UNL1        0.0326
     40 H           3.5100   -1.6590   -0.0430 H       1  UNL1        0.0326
     41 H          -3.3583    3.7654    1.8493 H       1  UNL1        0.0239
     42 H          -2.7501    2.1551    1.9991 H       1  UNL1        0.0239
     43 H          -1.8332    3.4128    1.1169 H       1  UNL1        0.0239
     44 H          -4.6563    4.5544   -0.0875 H       1  UNL1        0.0239
     45 H          -5.5824    3.2792    0.7184 H       1  UNL1        0.0239
     46 H          -5.4214    3.2640   -1.0378 H       1  UNL1        0.0239
     47 H          -3.0696    3.8948   -1.6644 H       1  UNL1        0.0239
     48 H          -1.6739    3.1615   -0.9821 H       1  UNL1        0.0239
     49 H          -2.7936    2.2028   -1.9748 H       1  UNL1        0.0239
     50 H          -2.9462   -1.3146   -2.2190 H       1  UNL1        0.0636
     51 H          -3.2725   -1.4825    2.0776 H       1  UNL1        0.0636
     52 H          -3.3888   -3.7408   -2.3398 H       1  UNL1        0.0618
     53 H          -3.7136   -3.9080    1.9418 H       1  UNL1        0.0618
     54 H           5.1995    1.0520   -1.9009 H       1  UNL1        0.0620
     55 H           5.4465   -1.6070    1.4834 H       1  UNL1        0.0620
     56 H          -3.7759   -5.0427   -0.2637 H       1  UNL1        0.0618
     57 H           7.6071    1.5555   -1.6721 H       1  UNL1        0.0618
     58 H           7.8530   -1.0947    1.7014 H       1  UNL1        0.0618
     59 H           8.9386    0.4856    0.1271 H       1  UNL1        0.0618
@<TRIPOS>BOND
     1     1    11    2
     2     2     7    1
     3     2     8    1
     4     2     9    1
     5     3     4    1
     6     3    11   am
     7     3    12    1
     8     4     5    1
     9     4     6    1
    10     4    28    1
    11     5     7    1
    12     5    29    1
    13     5    30    1
    14     6     8    1
    15     6    31    1
    16     6    32    1
    17     7    33    1
    18     7    34    1
    19     8    35    1
    20     8    36    1
    21     9    13    1
    22     9    37    1
    23     9    38    1
    24    10    11    1
    25    10    14    1
    26    10    15    1
    27    10    16    1
    28    12    18   ar
    29    12    19   ar
    30    13    17    1
    31    13    39    1
    32    13    40    1
    33    14    41    1
    34    14    42    1
    35    14    43    1
    36    15    44    1
    37    15    45    1
    38    15    46    1
    39    16    47    1
    40    16    48    1
    41    16    49    1
    42    17    22   ar
    43    17    23   ar
    44    18    20   ar
    45    18    50    1
    46    19    21   ar
    47    19    51    1
    48    20    24   ar
    49    20    52    1
    50    21    24   ar
    51    21    53    1
    52    22    25   ar
    53    22    54    1
    54    23    26   ar
    55    23    55    1
    56    24    56    1
    57    25    27   ar
    58    25    57    1
    59    26    27   ar
    60    26    58    1
    61    27    59    1
@<TRIPOS>MOLECULE
157010641
 59 62 0 0 0
SMALL
GASTEIGER

@<TRIPOS>ATOM
      1 O          -4.4802    1.4177    0.9266 O.3     1  UNL1       -0.3673
      2 O          -2.2560    1.8173   -1.4466 O.2     1  UNL1       -0.2724
      3 O           9.3952   -0.4156    0.4574 O.3     1  UNL1       -0.5068
      4 N           1.6127    0.1236    0.1706 N.3     1  UNL1       -0.3019
      5 N          -2.5767   -0.2526   -0.3230 N.am    1  UNL1       -0.2662
      6 C          -1.2189   -0.5915    0.0227 C.3     1  UNL1        0.0335
      7 C          -0.3204   -0.5662   -1.2136 C.3     1  UNL1       -0.0210
      8 C          -0.6722    0.3523    1.0942 C.3     1  UNL1       -0.0210
      9 C           1.1396   -0.8338   -0.8387 C.3     1  UNL1        0.0006
     10 C           0.7992    0.0528    1.3923 C.3     1  UNL1        0.0006
     11 C           3.0224   -0.1140    0.4801 C.3     1  UNL1        0.0029
     12 C          -4.3633    1.4405   -0.4991 C.3     1  UNL1        0.1349
     13 C          -2.9551    1.0359   -0.7967 C.2     1  UNL1        0.2489
     14 C          -4.6708    2.8512   -0.9632 C.3     1  UNL1       -0.0159
     15 C          -3.6080   -1.2608   -0.0820 C.ar    1  UNL1        0.0366
     16 C           3.9111    0.4788   -0.6129 C.3     1  UNL1       -0.0149
     17 C          -4.3789    3.6789    0.2658 C.3     1  UNL1       -0.0266
     18 C          -4.7859    2.7427    1.3806 C.3     1  UNL1        0.0487
     19 C           5.3726    0.2405   -0.3275 C.ar    1  UNL1       -0.0459
     20 C          -4.4279   -1.6836   -1.1281 C.ar    1  UNL1       -0.0403
     21 C          -3.7713   -1.8000    1.1939 C.ar    1  UNL1       -0.0403
     22 C          -5.4114   -2.6457   -0.8981 C.ar    1  UNL1       -0.0600
     23 C          -4.7547   -2.7621    1.4238 C.ar    1  UNL1       -0.0600
     24 C           6.1002    1.1731    0.4117 C.ar    1  UNL1       -0.0551
     25 C           5.9968   -0.9126   -0.8032 C.ar    1  UNL1       -0.0551
     26 C          -5.5747   -3.1850    0.3778 C.ar    1  UNL1       -0.0616
     27 C           7.4521    0.9524    0.6752 C.ar    1  UNL1       -0.0199
     28 C           7.3485   -1.1334   -0.5396 C.ar    1  UNL1       -0.0199
     29 C           8.0763   -0.2008    0.1996 C.ar    1  UNL1        0.1169
     30 H          -1.1899   -1.6145    0.4219 H       1  UNL1        0.0505
     31 H          -0.6576   -1.3205   -1.9354 H       1  UNL1        0.0296
     32 H          -0.3664    0.3973   -1.7319 H       1  UNL1        0.0296
     33 H          -0.7615    1.3996    0.7785 H       1  UNL1        0.0296
     34 H          -1.2587    0.2579    2.0162 H       1  UNL1        0.0296
     35 H           1.2378   -1.8654   -0.4750 H       1  UNL1        0.0427
     36 H           1.7271   -0.7613   -1.7596 H       1  UNL1        0.0427
     37 H           1.1515    0.7943    2.1199 H       1  UNL1        0.0427
     38 H           0.8877   -0.9349    1.8639 H       1  UNL1        0.0427
     39 H           3.2290   -1.1819    0.6320 H       1  UNL1        0.0430
     40 H           3.2874    0.3838    1.4232 H       1  UNL1        0.0430
     41 H          -5.0857    0.7584   -0.9486 H       1  UNL1        0.0693
     42 H          -5.7431    2.9272   -1.1869 H       1  UNL1        0.0296
     43 H          -4.1384    3.1928   -1.8549 H       1  UNL1        0.0296
     44 H           3.6845    0.0577   -1.5990 H       1  UNL1        0.0326
     45 H           3.7302    1.5583   -0.7045 H       1  UNL1        0.0326
     46 H          -3.3045    3.8878    0.3260 H       1  UNL1        0.0288
     47 H          -4.9155    4.6309    0.2912 H       1  UNL1        0.0288
     48 H          -4.2564    2.9436    2.3159 H       1  UNL1        0.0560
     49 H          -5.8637    2.7936    1.5687 H       1  UNL1        0.0560
     50 H          -4.3037   -1.2820   -2.1306 H       1  UNL1        0.0636
     51 H          -3.1480   -1.4757    2.0227 H       1  UNL1        0.0636
     52 H          -6.0481   -2.9770   -1.7132 H       1  UNL1        0.0618
     53 H          -4.8833   -3.1805    2.4178 H       1  UNL1        0.0618
     54 H           5.6246    2.0744    0.7891 H       1  UNL1        0.0621
     55 H           5.4397   -1.6475   -1.3784 H       1  UNL1        0.0621
     56 H          -6.3404   -3.9341    0.5568 H       1  UNL1        0.0618
     57 H           8.0136    1.6823    1.2521 H       1  UNL1        0.0654
     58 H           7.8229   -2.0360   -0.9153 H       1  UNL1        0.0654
     59 H           9.6615   -1.2598    0.0543 H       1  UNL1        0.2921
@<TRIPOS>BOND
     1     1    12    1
     2     1    18    1
     3     2    13    2
     4     3    29    1
     5     3    59    1
     6     4     9    1
     7     4    10    1
     8     4    11    1
     9     5     6    1
    10     5    13   am
    11     5    15    1
    12     6     7    1
    13     6     8    1
    14     6    30    1
    15     7     9    1
    16     7    31    1
    17     7    32    1
    18     8    10    1
    19     8    33    1
    20     8    34    1
    21     9    35    1
    22     9    36    1
    23    10    37    1
    24    10    38    1
    25    11    16    1
    26    11    39    1
    27    11    40    1
    28    12    13    1
    29    12    14    1
    30    12    41    1
    31    14    17    1
    32    14    42    1
    33    14    43    1
    34    15    20   ar
    35    15    21   ar
    36    16    19    1
    37    16    44    1
    38    16    45    1
    39    17    18    1
    40    17    46    1
    41    17    47    1
    42    18    48    1
    43    18    49    1
    44    19    24   ar
    45    19    25   ar
    46    20    22   ar
    47    20    50    1
    48    21    23   ar
    49    21    51    1
    50    22    26   ar
    51    22    52    1
    52    23    26   ar
    53    23    53    1
    54    24    27   ar
    55    24    54    1
    56    25    28   ar
    57    25    55    1
    58    26    56    1
    59    27    29   ar
    60    27    57    1
    61    28    29   ar
    62    28    58    1
@<TRIPOS>MOLECULE
7666
 18 18 0 0 0
SMALL
GASTEIGER

@<TRIPOS>ATOM
      1 BR          4.2261   -0.0184   -0.1422 Br      1  UNL1       -0.0914
      2 C           1.4774    0.0140    0.6446 C.3     1  UNL1       -0.0181
      3 C           0.0214    0.0055    0.3214 C.ar    1  UNL1       -0.0466
      4 C          -0.6660    1.2097    0.1684 C.ar    1  UNL1       -0.0585
      5 C          -0.6529   -1.2064    0.1716 C.ar    1  UNL1       -0.0585
      6 C           2.3381    0.0173   -0.6147 C.3     1  UNL1        0.0073
      7 C          -2.0276    1.2021   -0.1342 C.ar    1  UNL1       -0.0615
      8 C          -2.0146   -1.2139   -0.1310 C.ar    1  UNL1       -0.0615
      9 C          -2.7019   -0.0097   -0.2839 C.ar    1  UNL1       -0.0617
     10 H           1.7208   -0.8564    1.2686 H       1  UNL1        0.0321
     11 H           1.7141    0.8870    1.2673 H       1  UNL1        0.0321
     12 H          -0.1516    2.1605    0.2805 H       1  UNL1        0.0620
     13 H          -0.1284   -2.1514    0.2862 H       1  UNL1        0.0620
     14 H           2.1583   -0.8635   -1.2385 H       1  UNL1        0.0385
     15 H           2.1830    0.9178   -1.2165 H       1  UNL1        0.0385
     16 H          -2.5627    2.1396   -0.2538 H       1  UNL1        0.0618
     17 H          -2.5398   -2.1574   -0.2482 H       1  UNL1        0.0618
     18 H          -3.7619   -0.0157   -0.5198 H       1  UNL1        0.0618
@<TRIPOS>BOND
     1     1     6    1
     2     2     3    1
     3     2     6    1
     4     2    10    1
     5     2    11    1
     6     3     4   ar
     7     3     5   ar
     8     4     7   ar
     9     4    12    1
    10     5     8   ar
    11     5    13    1
    12     6    14    1
    13     6    15    1
    14     7     9   ar
    15     7    16    1
    16     8     9   ar
    17     8    17    1
    18     9    18    1
@<TRIPOS>MOLECULE
5745882
 56 58 0 0 0
SMALL
GASTEIGER

@<TRIPOS>ATOM
      1 O          -3.6989   -2.8501    0.3738 O.2     1  UNL1       -0.2753
      2 N           1.3436   -0.1381   -0.4034 N.3     1  UNL1       -0.3016
      3 N          -2.8262   -0.6581    0.1407 N.am    1  UNL1       -0.2680
      4 C          -1.4375   -1.0104   -0.0547 C.3     1  UNL1        0.0360
      5 C          -0.9001   -0.5258   -1.4174 C.3     1  UNL1       -0.0120
      6 C          -0.5959   -0.4293    1.0865 C.3     1  UNL1       -0.0208
      7 C           0.6200   -0.7629   -1.5186 C.3     1  UNL1        0.0032
      8 C           0.8951   -0.6851    0.8820 C.3     1  UNL1        0.0006
      9 C          -1.5995   -1.2197   -2.5918 C.3     1  UNL1       -0.0595
     10 C           2.7862   -0.3232   -0.5615 C.3     1  UNL1        0.0029
     11 C           3.5570    0.4251    0.5265 C.3     1  UNL1       -0.0149
     12 C          -3.1936    0.7566    0.1319 C.ar    1  UNL1        0.0366
     13 C          -3.8552   -1.6268    0.3416 C.2     1  UNL1        0.2198
     14 C          -5.2620   -1.0518    0.4806 C.3     1  UNL1        0.0217
     15 C           5.0470    0.2608    0.3617 C.ar    1  UNL1       -0.0462
     16 C          -3.1705    1.4219    1.3213 C.ar    1  UNL1       -0.0403
     17 C          -3.5333    1.3133   -1.0648 C.ar    1  UNL1       -0.0403
     18 C          -6.3173   -2.1236    0.7076 C.3     1  UNL1       -0.0570
     19 C          -3.5207    2.7720    1.3132 C.ar    1  UNL1       -0.0600
     20 C          -3.8834    2.6636   -1.0729 C.ar    1  UNL1       -0.0600
     21 C           5.6884   -0.7984    0.9861 C.ar    1  UNL1       -0.0585
     22 C           5.7511    1.1711   -0.4120 C.ar    1  UNL1       -0.0585
     23 C          -3.8770    3.3929    0.1162 C.ar    1  UNL1       -0.0616
     24 C           7.0665   -0.9506    0.8336 C.ar    1  UNL1       -0.0615
     25 C           7.1293    1.0187   -0.5645 C.ar    1  UNL1       -0.0615
     26 C           7.7869   -0.0421    0.0582 C.ar    1  UNL1       -0.0617
     27 H          -1.3494   -2.1040   -0.0160 H       1  UNL1        0.0508
     28 H          -1.0509    0.5550   -1.5238 H       1  UNL1        0.0329
     29 H          -0.7166    0.6565    1.1665 H       1  UNL1        0.0296
     30 H          -0.9154   -0.8570    2.0449 H       1  UNL1        0.0296
     31 H           0.9719   -0.3342   -2.4659 H       1  UNL1        0.0430
     32 H           0.8293   -1.8409   -1.5567 H       1  UNL1        0.0430
     33 H           1.3836   -0.2018    1.7317 H       1  UNL1        0.0427
     34 H           1.1019   -1.7612    0.9500 H       1  UNL1        0.0427
     35 H          -2.6869   -1.1309   -2.5518 H       1  UNL1        0.0233
     36 H          -1.2645   -0.7932   -3.5435 H       1  UNL1        0.0233
     37 H          -1.3646   -2.2900   -2.6064 H       1  UNL1        0.0233
     38 H           3.0976    0.0669   -1.5396 H       1  UNL1        0.0430
     39 H           3.0498   -1.3897   -0.5496 H       1  UNL1        0.0430
     40 H           3.3010    1.4929    0.5106 H       1  UNL1        0.0326
     41 H           3.3190    0.0741    1.5354 H       1  UNL1        0.0326
     42 H          -5.5245   -0.5089   -0.4326 H       1  UNL1        0.0356
     43 H          -5.2951   -0.3663    1.3327 H       1  UNL1        0.0356
     44 H          -2.9096    0.9397    2.2574 H       1  UNL1        0.0636
     45 H          -3.5696    0.7584   -1.9928 H       1  UNL1        0.0636
     46 H          -7.3074   -1.6679    0.8069 H       1  UNL1        0.0234
     47 H          -6.1102   -2.6927    1.6200 H       1  UNL1        0.0234
     48 H          -6.3488   -2.8288   -0.1296 H       1  UNL1        0.0234
     49 H          -3.5198    3.3388    2.2397 H       1  UNL1        0.0618
     50 H          -4.1670    3.1456   -2.0039 H       1  UNL1        0.0618
     51 H           5.1364   -1.5131    1.5898 H       1  UNL1        0.0620
     52 H           5.2476    1.9992   -0.9025 H       1  UNL1        0.0620
     53 H          -4.1519    4.4436    0.1102 H       1  UNL1        0.0618
     54 H           7.5786   -1.7770    1.3177 H       1  UNL1        0.0618
     55 H           7.6902    1.7257   -1.1687 H       1  UNL1        0.0618
     56 H           8.8599   -0.1609   -0.0609 H       1  UNL1        0.0618
@<TRIPOS>BOND
     1     1    13    2
     2     2     7    1
     3     2     8    1
     4     2    10    1
     5     3     4    1
     6     3    12    1
     7     3    13   am
     8     4     5    1
     9     4     6    1
    10     4    27    1
    11     5     7    1
    12     5     9    1
    13     5    28    1
    14     6     8    1
    15     6    29    1
    16     6    30    1
    17     7    31    1
    18     7    32    1
    19     8    33    1
    20     8    34    1
    21     9    35    1
    22     9    36    1
    23     9    37    1
    24    10    11    1
    25    10    38    1
    26    10    39    1
    27    11    15    1
    28    11    40    1
    29    11    41    1
    30    12    16   ar
    31    12    17   ar
    32    13    14    1
    33    14    18    1
    34    14    42    1
    35    14    43    1
    36    15    21   ar
    37    15    22   ar
    38    16    19   ar
    39    16    44    1
    40    17    20   ar
    41    17    45    1
    42    18    46    1
    43    18    47    1
    44    18    48    1
    45    19    23   ar
    46    19    49    1
    47    20    23   ar
    48    20    50    1
    49    21    24   ar
    50    21    51    1
    51    22    25   ar
    52    22    52    1
    53    23    53    1
    54    24    26   ar
    55    24    54    1
    56    25    26   ar
    57    25    55    1
    58    26    56    1
@<TRIPOS>MOLECULE
71748858
 54 56 0 0 0
SMALL
GASTEIGER

@<TRIPOS>ATOM
      1 O          -2.1985    2.2616   -1.1508 O.2     1  UNL1       -0.2752
      2 O          -3.2042    3.6030    1.5112 O.3     1  UNL1       -0.3945
      3 N           1.6008   -0.0532   -0.4619 N.3     1  UNL1       -0.3019
      4 N          -2.6286    0.0876   -0.3156 N.am    1  UNL1       -0.2682
      5 C          -1.2908   -0.4454   -0.2484 C.3     1  UNL1        0.0334
      6 C          -0.5828   -0.3112   -1.5963 C.3     1  UNL1       -0.0210
      7 C          -0.4773    0.2457    0.8463 C.3     1  UNL1       -0.0210
      8 C           0.8706   -0.7803   -1.5095 C.3     1  UNL1        0.0006
      9 C           0.9723   -0.2428    0.8528 C.3     1  UNL1        0.0006
     10 C           3.0003   -0.4773   -0.4257 C.3     1  UNL1        0.0029
     11 C           3.8908    0.6216    0.1551 C.3     1  UNL1       -0.0149
     12 C          -3.7322   -0.8349   -0.0610 C.ar    1  UNL1        0.0366
     13 C          -2.9059    1.4723   -0.5197 C.2     1  UNL1        0.2222
     14 C          -4.2251    1.9614    0.0786 C.3     1  UNL1        0.0476
     15 C           5.3401    0.2055    0.1777 C.ar    1  UNL1       -0.0462
     16 C          -4.7456   -0.9879   -1.0072 C.ar    1  UNL1       -0.0403
     17 C          -3.7727   -1.5625    1.1282 C.ar    1  UNL1       -0.0403
     18 C          -4.1884    3.4256    0.5006 C.3     1  UNL1        0.0525
     19 C           5.8605   -0.4497    1.2938 C.ar    1  UNL1       -0.0585
     20 C           6.1602    0.4759   -0.9176 C.ar    1  UNL1       -0.0585
     21 C          -5.7997   -1.8685   -0.7640 C.ar    1  UNL1       -0.0600
     22 C          -4.8266   -2.4432    1.3715 C.ar    1  UNL1       -0.0600
     23 C          -5.8403   -2.5961    0.4253 C.ar    1  UNL1       -0.0616
     24 C           7.2012   -0.8344    1.3145 C.ar    1  UNL1       -0.0615
     25 C           7.5007    0.0912   -0.8970 C.ar    1  UNL1       -0.0615
     26 C           8.0213   -0.5639    0.2191 C.ar    1  UNL1       -0.0617
     27 H          -1.3358   -1.5178   -0.0142 H       1  UNL1        0.0505
     28 H          -1.1125   -0.8995   -2.3559 H       1  UNL1        0.0296
     29 H          -0.5831    0.7231   -1.9556 H       1  UNL1        0.0296
     30 H          -0.4798    1.3347    0.7098 H       1  UNL1        0.0296
     31 H          -0.9304    0.0587    1.8275 H       1  UNL1        0.0296
     32 H           0.8999   -1.8625   -1.3259 H       1  UNL1        0.0427
     33 H           1.3392   -0.6027   -2.4854 H       1  UNL1        0.0427
     34 H           1.5064    0.3222    1.6243 H       1  UNL1        0.0427
     35 H           0.9979   -1.2996    1.1505 H       1  UNL1        0.0427
     36 H           3.1231   -1.4231    0.1192 H       1  UNL1        0.0430
     37 H           3.3561   -0.6734   -1.4470 H       1  UNL1        0.0430
     38 H           3.5884    0.8853    1.1756 H       1  UNL1        0.0326
     39 H           3.7870    1.5437   -0.4322 H       1  UNL1        0.0326
     40 H          -5.0155    1.8207   -0.6654 H       1  UNL1        0.0381
     41 H          -4.4643    1.3743    0.9713 H       1  UNL1        0.0381
     42 H          -4.7218   -0.4345   -1.9423 H       1  UNL1        0.0636
     43 H          -2.9975   -1.4491    1.8811 H       1  UNL1        0.0636
     44 H          -5.1564    3.7259    0.9126 H       1  UNL1        0.0562
     45 H          -3.9516    4.0876   -0.3384 H       1  UNL1        0.0562
     46 H           5.2309   -0.6679    2.1523 H       1  UNL1        0.0620
     47 H           5.7658    0.9840   -1.7936 H       1  UNL1        0.0620
     48 H          -6.5878   -1.9890   -1.5015 H       1  UNL1        0.0618
     49 H          -4.8595   -3.0083    2.2984 H       1  UNL1        0.0618
     50 H          -6.6610   -3.2817    0.6148 H       1  UNL1        0.0618
     51 H           7.6064   -1.3450    2.1832 H       1  UNL1        0.0618
     52 H           8.1393    0.3013   -1.7500 H       1  UNL1        0.0618
     53 H           9.0650   -0.8635    0.2351 H       1  UNL1        0.0618
     54 H          -2.3344    3.4309    1.1127 H       1  UNL1        0.2094
@<TRIPOS>BOND
     1     1    13    2
     2     2    18    1
     3     2    54    1
     4     3     8    1
     5     3     9    1
     6     3    10    1
     7     4     5    1
     8     4    12    1
     9     4    13   am
    10     5     6    1
    11     5     7    1
    12     5    27    1
    13     6     8    1
    14     6    28    1
    15     6    29    1
    16     7     9    1
    17     7    30    1
    18     7    31    1
    19     8    32    1
    20     8    33    1
    21     9    34    1
    22     9    35    1
    23    10    11    1
    24    10    36    1
    25    10    37    1
    26    11    15    1
    27    11    38    1
    28    11    39    1
    29    12    16   ar
    30    12    17   ar
    31    13    14    1
    32    14    18    1
    33    14    40    1
    34    14    41    1
    35    15    19   ar
    36    15    20   ar
    37    16    21   ar
    38    16    42    1
    39    17    22   ar
    40    17    43    1
    41    18    44    1
    42    18    45    1
    43    19    24   ar
    44    19    46    1
    45    20    25   ar
    46    20    47    1
    47    21    23   ar
    48    21    48    1
    49    22    23   ar
    50    22    49    1
    51    23    50    1
    52    24    26   ar
    53    24    51    1
    54    25    26   ar
    55    25    52    1
    56    26    53    1
@<TRIPOS>MOLECULE
618633
 53 55 0 0 0
SMALL
GASTEIGER

@<TRIPOS>ATOM
      1 O          -3.3180   -3.3024   -0.2209 O.2     1  UNL1       -0.2755
      2 N           1.1942    0.0670    0.2779 N.3     1  UNL1       -0.3019
      3 N          -2.9004   -0.9735   -0.0073 N.am    1  UNL1       -0.2683
      4 C          -1.5097   -1.0476    0.3654 C.3     1  UNL1        0.0334
      5 C          -0.6198   -1.1614   -0.8720 C.3     1  UNL1       -0.0210
      6 C          -1.0985    0.1646    1.2016 C.3     1  UNL1       -0.0210
      7 C           0.8624   -1.1383   -0.4945 C.3     1  UNL1        0.0006
      8 C           0.3993    0.1428    1.5115 C.3     1  UNL1        0.0006
      9 C           2.6235    0.0986    0.5876 C.3     1  UNL1        0.0029
     10 C           3.4959    0.1029   -0.6664 C.3     1  UNL1       -0.0149
     11 C          -3.4759    0.3546   -0.2068 C.ar    1  UNL1        0.0394
     12 C          -3.6906   -2.1275   -0.2708 C.2     1  UNL1        0.2169
     13 C          -4.1153    0.9513    0.8387 C.ar    1  UNL1       -0.0290
     14 C           4.9662    0.1594   -0.3664 C.ar    1  UNL1       -0.0462
     15 C          -3.3273    0.9098   -1.4447 C.ar    1  UNL1       -0.0400
     16 C          -5.1413   -1.8600   -0.6007 C.3     1  UNL1        0.0127
     17 C          -4.6568    2.2195    0.6288 C.ar    1  UNL1       -0.0571
     18 C          -4.2626    0.3183    2.1842 C.3     1  UNL1       -0.0379
     19 C          -3.8688    2.1781   -1.6547 C.ar    1  UNL1       -0.0600
     20 C           5.5980    1.3924   -0.2542 C.ar    1  UNL1       -0.0585
     21 C           5.6807   -1.0217   -0.2044 C.ar    1  UNL1       -0.0585
     22 C          -4.5335    2.8329   -0.6179 C.ar    1  UNL1       -0.0614
     23 C           6.9639    1.4449    0.0240 C.ar    1  UNL1       -0.0615
     24 C           7.0464   -0.9691    0.0739 C.ar    1  UNL1       -0.0615
     25 C           7.6880    0.2642    0.1880 C.ar    1  UNL1       -0.0617
     26 H          -1.3759   -1.9567    0.9668 H       1  UNL1        0.0505
     27 H          -0.8091   -0.3386   -1.5707 H       1  UNL1        0.0296
     28 H          -0.8451   -2.0868   -1.4162 H       1  UNL1        0.0296
     29 H          -1.6296    0.1767    2.1575 H       1  UNL1        0.0296
     30 H          -1.2951    1.1164    0.6944 H       1  UNL1        0.0296
     31 H           1.3983   -1.1719   -1.4467 H       1  UNL1        0.0427
     32 H           1.1175   -2.0484    0.0641 H       1  UNL1        0.0427
     33 H           0.6252   -0.7030    2.1744 H       1  UNL1        0.0427
     34 H           0.6485    1.0599    2.0595 H       1  UNL1        0.0427
     35 H           2.9006   -0.7500    1.2283 H       1  UNL1        0.0430
     36 H           2.8452    1.0070    1.1634 H       1  UNL1        0.0430
     37 H           3.3424   -0.7921   -1.2784 H       1  UNL1        0.0326
     38 H           3.2229    0.9502   -1.3099 H       1  UNL1        0.0326
     39 H          -2.8311    0.3995   -2.2625 H       1  UNL1        0.0636
     40 H          -5.2338   -1.2486   -1.5013 H       1  UNL1        0.0323
     41 H          -5.6535   -1.3896    0.2411 H       1  UNL1        0.0323
     42 H          -5.6428   -2.8129   -0.8011 H       1  UNL1        0.0323
     43 H          -5.1767    2.7393    1.4293 H       1  UNL1        0.0621
     44 H          -3.8813   -0.7037    2.2483 H       1  UNL1        0.0278
     45 H          -3.7427    0.9173    2.9397 H       1  UNL1        0.0278
     46 H          -5.3239    0.2726    2.4543 H       1  UNL1        0.0278
     47 H          -3.7771    2.6536   -2.6268 H       1  UNL1        0.0618
     48 H           5.0430    2.3182   -0.3781 H       1  UNL1        0.0620
     49 H           5.1911   -1.9881   -0.2884 H       1  UNL1        0.0620
     50 H          -4.9560    3.8200   -0.7818 H       1  UNL1        0.0618
     51 H           7.4634    2.4052    0.1136 H       1  UNL1        0.0618
     52 H           7.6103   -1.8884    0.2024 H       1  UNL1        0.0618
     53 H           8.7514    0.3050    0.4049 H       1  UNL1        0.0618
@<TRIPOS>BOND
     1     1    12    2
     2     2     7    1
     3     2     8    1
     4     2     9    1
     5     3     4    1
     6     3    11    1
     7     3    12   am
     8     4     5    1
     9     4     6    1
    10     4    26    1
    11     5     7    1
    12     5    27    1
    13     5    28    1
    14     6     8    1
    15     6    29    1
    16     6    30    1
    17     7    31    1
    18     7    32    1
    19     8    33    1
    20     8    34    1
    21     9    10    1
    22     9    35    1
    23     9    36    1
    24    10    14    1
    25    10    37    1
    26    10    38    1
    27    11    13   ar
    28    11    15   ar
    29    12    16    1
    30    13    17   ar
    31    13    18    1
    32    14    20   ar
    33    14    21   ar
    34    15    19   ar
    35    15    39    1
    36    16    40    1
    37    16    41    1
    38    16    42    1
    39    17    22   ar
    40    17    43    1
    41    18    44    1
    42    18    45    1
    43    18    46    1
    44    19    22   ar
    45    19    47    1
    46    20    23   ar
    47    20    48    1
    48    21    24   ar
    49    21    49    1
    50    22    50    1
    51    23    25   ar
    52    23    51    1
    53    24    25   ar
    54    24    52    1
    55    25    53    1
@<TRIPOS>MOLECULE
10314851
 51 53 0 0 0
SMALL
GASTEIGER

@<TRIPOS>ATOM
      1 O          -3.7340   -2.9279    0.0122 O.2     1  UNL1       -0.2703
      2 N           1.2900   -0.4060   -0.4597 N.3     1  UNL1       -0.3019
      3 N          -2.8936   -0.7120    0.1173 N.am    1  UNL1       -0.2648
      4 C          -1.4915   -1.0394    0.1904 C.3     1  UNL1        0.0337
      5 C          -0.9098   -1.2576   -1.2061 C.3     1  UNL1       -0.0210
      6 C          -0.7092    0.0507    0.9237 C.3     1  UNL1       -0.0210
      7 C           0.5986   -1.5053   -1.1471 C.3     1  UNL1        0.0006
      8 C           0.7923   -0.2413    0.9130 C.3     1  UNL1        0.0006
      9 C           2.7350   -0.6335   -0.4561 C.3     1  UNL1        0.0029
     10 C           3.4767    0.5645    0.1382 C.3     1  UNL1       -0.0149
     11 C          -3.2672    0.7032    0.0437 C.ar    1  UNL1        0.0369
     12 C          -3.9070   -1.7090    0.0331 C.2     1  UNL1        0.2433
     13 C           4.9695    0.3521    0.1273 C.ar    1  UNL1       -0.0462
     14 C          -3.5550    1.3372    1.2132 C.ar    1  UNL1       -0.0403
     15 C          -3.2986    1.2805   -1.1885 C.ar    1  UNL1       -0.0403
     16 C          -5.3000   -1.1781   -0.0373 C.2     1  UNL1       -0.0064
     17 C           5.5799   -0.2485    1.2181 C.ar    1  UNL1       -0.0585
     18 C           5.7076    0.7603   -0.9736 C.ar    1  UNL1       -0.0585
     19 C          -3.9102    2.6844    1.1436 C.ar    1  UNL1       -0.0600
     20 C          -3.6538    2.6277   -1.2581 C.ar    1  UNL1       -0.0600
     21 C          -3.9596    3.3295   -0.0920 C.ar    1  UNL1       -0.0616
     22 C           6.9608   -0.4453    1.2081 C.ar    1  UNL1       -0.0615
     23 C           7.0885    0.5634   -0.9835 C.ar    1  UNL1       -0.0615
     24 C           7.7150   -0.0395    0.1073 C.ar    1  UNL1       -0.0617
     25 C          -6.3241   -1.9099    0.4127 C.2     1  UNL1       -0.0938
     26 H          -1.3986   -1.9797    0.7498 H       1  UNL1        0.0505
     27 H          -1.4013   -2.1088   -1.6928 H       1  UNL1        0.0296
     28 H          -1.0920   -0.3880   -1.8478 H       1  UNL1        0.0296
     29 H          -0.8351    1.0372    0.4610 H       1  UNL1        0.0296
     30 H          -1.0470    0.1295    1.9643 H       1  UNL1        0.0296
     31 H           0.7945   -2.4636   -0.6480 H       1  UNL1        0.0427
     32 H           0.9691   -1.5929   -2.1758 H       1  UNL1        0.0427
     33 H           1.2507    0.6127    1.4180 H       1  UNL1        0.0427
     34 H           1.0002   -1.1341    1.5173 H       1  UNL1        0.0427
     35 H           2.9877   -1.5496    0.0951 H       1  UNL1        0.0430
     36 H           3.0822   -0.7811   -1.4873 H       1  UNL1        0.0430
     37 H           3.2315    1.4797   -0.4171 H       1  UNL1        0.0326
     38 H           3.2010    0.7615    1.1788 H       1  UNL1        0.0326
     39 H          -3.5216    0.8346    2.1740 H       1  UNL1        0.0636
     40 H          -3.0788    0.7359   -2.0997 H       1  UNL1        0.0636
     41 H          -5.5173   -0.2206   -0.4916 H       1  UNL1        0.0664
     42 H           5.0013   -0.5708    2.0793 H       1  UNL1        0.0620
     43 H           5.2285    1.2288   -1.8286 H       1  UNL1        0.0620
     44 H          -4.1498    3.2303    2.0514 H       1  UNL1        0.0618
     45 H          -3.6963    3.1291   -2.2207 H       1  UNL1        0.0618
     46 H          -4.2374    4.3780   -0.1464 H       1  UNL1        0.0618
     47 H           7.4486   -0.9154    2.0571 H       1  UNL1        0.0618
     48 H           7.6759    0.8788   -1.8409 H       1  UNL1        0.0618
     49 H           8.7901   -0.1931    0.0992 H       1  UNL1        0.0618
     50 H          -7.3379   -1.5303    0.3387 H       1  UNL1        0.0536
     51 H          -6.1872   -2.8859    0.8650 H       1  UNL1        0.0536
@<TRIPOS>BOND
     1     1    12    2
     2     2     7    1
     3     2     8    1
     4     2     9    1
     5     3     4    1
     6     3    11    1
     7     3    12   am
     8     4     5    1
     9     4     6    1
    10     4    26    1
    11     5     7    1
    12     5    27    1
    13     5    28    1
    14     6     8    1
    15     6    29    1
    16     6    30    1
    17     7    31    1
    18     7    32    1
    19     8    33    1
    20     8    34    1
    21     9    10    1
    22     9    35    1
    23     9    36    1
    24    10    13    1
    25    10    37    1
    26    10    38    1
    27    11    14   ar
    28    11    15   ar
    29    12    16    1
    30    13    17   ar
    31    13    18   ar
    32    14    19   ar
    33    14    39    1
    34    15    20   ar
    35    15    40    1
    36    16    25    2
    37    16    41    1
    38    17    22   ar
    39    17    42    1
    40    18    23   ar
    41    18    43    1
    42    19    21   ar
    43    19    44    1
    44    20    21   ar
    45    20    45    1
    46    21    46    1
    47    22    24   ar
    48    22    47    1
    49    23    24   ar
    50    23    48    1
    51    24    49    1
    52    25    50    1
    53    25    51    1
@<TRIPOS>MOLECULE
13653667
 58 61 0 0 0
SMALL
GASTEIGER

@<TRIPOS>ATOM
      1 O          -3.5795    2.4952   -0.4077 O.2     1  UNL1       -0.2663
      2 O          -1.0625   -0.7596   -1.8634 O.3     1  UNL1       -0.4932
      3 O          -4.8711    0.0115    0.9403 O.2     1  UNL1       -0.4583
      4 N           2.0142    2.7232    0.0858 N.3     1  UNL1       -0.3019
      5 N          -1.8908    0.9688    0.1891 N.am    1  UNL1       -0.2585
      6 C          -0.8359    1.9463    0.2909 C.3     1  UNL1        0.0339
      7 C          -0.1535    2.1529   -1.0618 C.3     1  UNL1       -0.0210
      8 C           0.1870    1.5430    1.3543 C.3     1  UNL1       -0.0210
      9 C           1.0381    3.1068   -0.9420 C.3     1  UNL1        0.0006
     10 C           1.3658    2.5195    1.3877 C.3     1  UNL1        0.0006
     11 C           2.8196    1.5731   -0.3175 C.3     1  UNL1        0.0029
     12 C           3.8565    1.2283    0.7522 C.3     1  UNL1       -0.0149
     13 C          -1.5872   -0.4365    0.4551 C.ar    1  UNL1        0.0787
     14 C          -3.2295    1.3385   -0.1661 C.2     1  UNL1        0.2864
     15 C           4.7099    0.0561    0.3382 C.ar    1  UNL1       -0.0462
     16 C          -1.1905   -1.2202   -0.5868 C.ar    1  UNL1        0.1414
     17 C          -1.7250   -0.8658    1.7425 C.ar    1  UNL1       -0.0367
     18 C          -4.2183    0.2554   -0.2027 C.ar    1  UNL1        0.1896
     19 C          -0.9043   -2.5587   -0.3173 C.ar    1  UNL1       -0.0181
     20 C           4.3084   -1.2293    0.6698 C.ar    1  UNL1       -0.0585
     21 C           5.8819    0.2824   -0.3676 C.ar    1  UNL1       -0.0585
     22 C          -1.4390   -2.2042    2.0118 C.ar    1  UNL1       -0.0598
     23 C          -1.0288   -3.0506    0.9820 C.ar    1  UNL1       -0.0582
     24 C          -4.5858   -0.5509   -1.2168 C.ar    1  UNL1       -0.0113
     25 C           5.0976   -2.3137    0.2866 C.ar    1  UNL1       -0.0615
     26 C           6.6711   -0.8021   -0.7507 C.ar    1  UNL1       -0.0615
     27 C          -5.5759   -1.3971   -0.6632 C.ar    1  UNL1       -0.0231
     28 C           6.2789   -2.1001   -0.4235 C.ar    1  UNL1       -0.0617
     29 C          -5.7135   -1.0150    0.6510 C.ar    1  UNL1        0.0928
     30 C          -0.6376   -1.6970   -2.8502 C.3     1  UNL1        0.0789
     31 H          -1.2892    2.9006    0.5904 H       1  UNL1        0.0505
     32 H           0.2080    1.2090   -1.4752 H       1  UNL1        0.0296
     33 H          -0.8708    2.5532   -1.7887 H       1  UNL1        0.0296
     34 H          -0.2843    1.5339    2.3447 H       1  UNL1        0.0296
     35 H           0.6037    0.5444    1.1831 H       1  UNL1        0.0296
     36 H           1.5322    3.2060   -1.9164 H       1  UNL1        0.0427
     37 H           0.6638    4.1109   -0.7032 H       1  UNL1        0.0427
     38 H           0.9703    3.4978    1.6980 H       1  UNL1        0.0427
     39 H           2.0554    2.2726    2.1982 H       1  UNL1        0.0427
     40 H           3.3438    1.8127   -1.2519 H       1  UNL1        0.0430
     41 H           2.2016    0.6913   -0.5265 H       1  UNL1        0.0430
     42 H           4.4970    2.0951    0.9621 H       1  UNL1        0.0326
     43 H           3.4028    0.9456    1.7073 H       1  UNL1        0.0326
     44 H          -2.0530   -0.2125    2.5442 H       1  UNL1        0.0637
     45 H          -0.5809   -3.2754   -1.0641 H       1  UNL1        0.0655
     46 H           3.3881   -1.4070    1.2192 H       1  UNL1        0.0620
     47 H           6.1946    1.2894   -0.6287 H       1  UNL1        0.0620
     48 H          -1.5381   -2.5876    3.0231 H       1  UNL1        0.0618
     49 H          -0.8069   -4.0927    1.1930 H       1  UNL1        0.0619
     50 H          -4.2101   -0.5535   -2.2298 H       1  UNL1        0.0657
     51 H           4.7916   -3.3244    0.5402 H       1  UNL1        0.0618
     52 H           7.5906   -0.6360   -1.3043 H       1  UNL1        0.0618
     53 H          -6.1208   -2.1870   -1.1596 H       1  UNL1        0.0649
     54 H           6.8931   -2.9445   -0.7223 H       1  UNL1        0.0618
     55 H          -6.3329   -1.3556    1.4678 H       1  UNL1        0.1029
     56 H          -1.3642   -2.5066   -2.9781 H       1  UNL1        0.0660
     57 H          -0.5905   -1.1603   -3.8035 H       1  UNL1        0.0660
     58 H           0.3725   -2.0686   -2.6461 H       1  UNL1        0.0660
@<TRIPOS>BOND
     1     1    14    2
     2     2    16    1
     3     2    30    1
     4     3    18   ar
     5     3    29   ar
     6     4     9    1
     7     4    10    1
     8     4    11    1
     9     5     6    1
    10     5    13    1
    11     5    14   am
    12     6     7    1
    13     6     8    1
    14     6    31    1
    15     7     9    1
    16     7    32    1
    17     7    33    1
    18     8    10    1
    19     8    34    1
    20     8    35    1
    21     9    36    1
    22     9    37    1
    23    10    38    1
    24    10    39    1
    25    11    12    1
    26    11    40    1
    27    11    41    1
    28    12    15    1
    29    12    42    1
    30    12    43    1
    31    13    16   ar
    32    13    17   ar
    33    14    18    1
    34    15    20   ar
    35    15    21   ar
    36    16    19   ar
    37    17    22   ar
    38    17    44    1
    39    18    24   ar
    40    19    23   ar
    41    19    45    1
    42    20    25   ar
    43    20    46    1
    44    21    26   ar
    45    21    47    1
    46    22    23   ar
    47    22    48    1
    48    23    49    1
    49    24    27   ar
    50    24    50    1
    51    25    28   ar
    52    25    51    1
    53    26    28   ar
    54    26    52    1
    55    27    29   ar
    56    27    53    1
    57    28    54    1
    58    29    55    1
    59    30    56    1
    60    30    57    1
    61    30    58    1
@<TRIPOS>MOLECULE
71748859
 54 56 0 0 0
SMALL
GASTEIGER

@<TRIPOS>ATOM
      1 O          -2.1987    2.2619   -1.1509 O.2     1  UNL1       -0.2752
      2 O          -3.2041    3.6037    1.5111 O.3     1  UNL1       -0.3945
      3 N           1.6006   -0.0531   -0.4618 N.3     1  UNL1       -0.3019
      4 N          -2.6289    0.0880   -0.3153 N.am    1  UNL1       -0.2682
      5 C          -1.2910   -0.4450   -0.2480 C.3     1  UNL1        0.0334
      6 C          -0.5831   -0.3111   -1.5960 C.3     1  UNL1       -0.0210
      7 C          -0.4775    0.2462    0.8465 C.3     1  UNL1       -0.0210
      8 C           0.8703   -0.7803   -1.5092 C.3     1  UNL1        0.0006
      9 C           0.9721   -0.2424    0.8529 C.3     1  UNL1        0.0006
     10 C           3.0001   -0.4773   -0.4257 C.3     1  UNL1        0.0029
     11 C           3.8907    0.6216    0.1550 C.3     1  UNL1       -0.0149
     12 C          -3.7325   -0.8343   -0.0604 C.ar    1  UNL1        0.0366
     13 C          -2.9061    1.4727   -0.5196 C.2     1  UNL1        0.2222
     14 C          -4.2252    1.9620    0.0788 C.3     1  UNL1        0.0476
     15 C           5.3399    0.2055    0.1776 C.ar    1  UNL1       -0.0462
     16 C          -3.7720   -1.5632    1.1280 C.ar    1  UNL1       -0.0403
     17 C          -4.7459   -0.9874   -1.0065 C.ar    1  UNL1       -0.0403
     18 C          -4.1883    3.4262    0.5005 C.3     1  UNL1        0.0525
     19 C           5.8603   -0.4496    1.2937 C.ar    1  UNL1       -0.0585
     20 C           6.1599    0.4756   -0.9178 C.ar    1  UNL1       -0.0585
     21 C          -4.8251   -2.4450    1.3707 C.ar    1  UNL1       -0.0600
     22 C          -5.7991   -1.8693   -0.7640 C.ar    1  UNL1       -0.0600
     23 C          -5.8388   -2.5981    0.4246 C.ar    1  UNL1       -0.0616
     24 C           7.2010   -0.8343    1.3144 C.ar    1  UNL1       -0.0615
     25 C           7.5005    0.0909   -0.8972 C.ar    1  UNL1       -0.0615
     26 C           8.0210   -0.5640    0.2189 C.ar    1  UNL1       -0.0617
     27 H          -1.3361   -1.5174   -0.0138 H       1  UNL1        0.0505
     28 H          -0.5833    0.7232   -1.9555 H       1  UNL1        0.0296
     29 H          -1.1129   -0.8995   -2.3555 H       1  UNL1        0.0296
     30 H          -0.9305    0.0594    1.8277 H       1  UNL1        0.0296
     31 H          -0.4799    1.3352    0.7098 H       1  UNL1        0.0296
     32 H           0.8995   -1.8625   -1.3255 H       1  UNL1        0.0427
     33 H           1.3388   -0.6028   -2.4852 H       1  UNL1        0.0427
     34 H           1.5062    0.3227    1.6244 H       1  UNL1        0.0427
     35 H           0.9977   -1.2991    1.1509 H       1  UNL1        0.0427
     36 H           3.1228   -1.4230    0.1194 H       1  UNL1        0.0430
     37 H           3.3558   -0.6735   -1.4469 H       1  UNL1        0.0430
     38 H           3.5883    0.8856    1.1754 H       1  UNL1        0.0326
     39 H           3.7868    1.5437   -0.4325 H       1  UNL1        0.0326
     40 H          -5.0157    1.8213   -0.6652 H       1  UNL1        0.0381
     41 H          -4.4643    1.3751    0.9716 H       1  UNL1        0.0381
     42 H          -2.9967   -1.4499    1.8808 H       1  UNL1        0.0636
     43 H          -4.7228   -0.4333   -1.9414 H       1  UNL1        0.0636
     44 H          -5.1563    3.7267    0.9125 H       1  UNL1        0.0562
     45 H          -3.9515    4.0881   -0.3386 H       1  UNL1        0.0562
     46 H           5.2307   -0.6676    2.1523 H       1  UNL1        0.0620
     47 H           5.7656    0.9837   -1.7939 H       1  UNL1        0.0620
     48 H          -4.8572   -3.0110    2.2971 H       1  UNL1        0.0618
     49 H          -6.5872   -1.9900   -1.5015 H       1  UNL1        0.0618
     50 H          -6.6587   -3.2848    0.6136 H       1  UNL1        0.0618
     51 H           7.6062   -1.3448    2.1831 H       1  UNL1        0.0618
     52 H           8.1390    0.3008   -1.7504 H       1  UNL1        0.0618
     53 H           9.0648   -0.8638    0.2349 H       1  UNL1        0.0618
     54 H          -2.3344    3.4315    1.1125 H       1  UNL1        0.2094
@<TRIPOS>BOND
     1     1    13    2
     2     2    18    1
     3     2    54    1
     4     3     8    1
     5     3     9    1
     6     3    10    1
     7     4     5    1
     8     4    12    1
     9     4    13   am
    10     5     6    1
    11     5     7    1
    12     5    27    1
    13     6     8    1
    14     6    28    1
    15     6    29    1
    16     7     9    1
    17     7    30    1
    18     7    31    1
    19     8    32    1
    20     8    33    1
    21     9    34    1
    22     9    35    1
    23    10    11    1
    24    10    36    1
    25    10    37    1
    26    11    15    1
    27    11    38    1
    28    11    39    1
    29    12    16   ar
    30    12    17   ar
    31    13    14    1
    32    14    18    1
    33    14    40    1
    34    14    41    1
    35    15    19   ar
    36    15    20   ar
    37    16    21   ar
    38    16    42    1
    39    17    22   ar
    40    17    43    1
    41    18    44    1
    42    18    45    1
    43    19    24   ar
    44    19    46    1
    45    20    25   ar
    46    20    47    1
    47    21    23   ar
    48    21    48    1
    49    22    23   ar
    50    22    49    1
    51    23    50    1
    52    24    26   ar
    53    24    51    1
    54    25    26   ar
    55    25    52    1
    56    26    53    1
@<TRIPOS>MOLECULE
126682249
 50 52 0 0 0
SMALL
GASTEIGER

@<TRIPOS>ATOM
      1 O          -1.9079    2.5655   -0.7802 O.2     1  UNL1       -0.2753
      2 O           6.0826   -0.1320   -0.9011 O.2     1  UNL1       -0.4678
      3 N           1.8009    0.0514   -0.3423 N.3     1  UNL1       -0.3018
      4 N          -2.4213    0.3305   -0.1849 N.am    1  UNL1       -0.2683
      5 C          -1.1040   -0.2553   -0.1746 C.3     1  UNL1        0.0334
      6 C          -0.2712    0.2834    0.9890 C.3     1  UNL1       -0.0210
      7 C          -0.3852   -0.0025   -1.4996 C.3     1  UNL1       -0.0210
      8 C           1.1597   -0.2558    0.9437 C.3     1  UNL1        0.0006
      9 C           1.0497   -0.5312   -1.4628 C.3     1  UNL1        0.0006
     10 C           3.1839   -0.4252   -0.3510 C.3     1  UNL1        0.0057
     11 C           4.1110    0.5712    0.3458 C.3     1  UNL1        0.0183
     12 C          -3.5590   -0.5726   -0.0324 C.ar    1  UNL1        0.0366
     13 C          -2.6458    1.7382   -0.2389 C.2     1  UNL1        0.2198
     14 C          -3.9468    2.2090    0.4049 C.3     1  UNL1        0.0217
     15 C           5.5440    0.1023    0.3245 C.ar    1  UNL1        0.1061
     16 C          -4.5728   -0.5853   -0.9904 C.ar    1  UNL1       -0.0403
     17 C          -3.6320   -1.4222    1.0715 C.ar    1  UNL1       -0.0403
     18 C          -3.8485    3.6174    0.9714 C.3     1  UNL1       -0.0570
     19 C           6.4656   -0.1512    1.3138 C.ar    1  UNL1       -0.0207
     20 C          -5.6596   -1.4475   -0.8447 C.ar    1  UNL1       -0.0600
     21 C          -4.7187   -2.2844    1.2173 C.ar    1  UNL1       -0.0600
     22 C          -5.7325   -2.2970    0.2592 C.ar    1  UNL1       -0.0616
     23 C           7.6462   -0.5676    0.6537 C.ar    1  UNL1       -0.0237
     24 C           7.3619   -0.5393   -0.6919 C.ar    1  UNL1        0.0921
     25 H          -1.1892   -1.3443   -0.0576 H       1  UNL1        0.0505
     26 H          -0.7353    0.0082    1.9439 H       1  UNL1        0.0296
     27 H          -0.2333    1.3801    0.9708 H       1  UNL1        0.0296
     28 H          -0.3462    1.0639   -1.7452 H       1  UNL1        0.0296
     29 H          -0.9324   -0.4857   -2.3186 H       1  UNL1        0.0296
     30 H           1.1455   -1.3387    1.1257 H       1  UNL1        0.0427
     31 H           1.7102    0.2029    1.7722 H       1  UNL1        0.0427
     32 H           1.5288   -0.2666   -2.4136 H       1  UNL1        0.0427
     33 H           1.0388   -1.6272   -1.3972 H       1  UNL1        0.0427
     34 H           3.5329   -0.5232   -1.3883 H       1  UNL1        0.0431
     35 H           3.2733   -1.4273    0.0898 H       1  UNL1        0.0431
     36 H           3.8165    0.7233    1.3901 H       1  UNL1        0.0356
     37 H           4.0592    1.5486   -0.1500 H       1  UNL1        0.0356
     38 H          -4.2268    1.5482    1.2310 H       1  UNL1        0.0356
     39 H          -4.7383    2.1802   -0.3510 H       1  UNL1        0.0356
     40 H          -4.5243    0.0644   -1.8604 H       1  UNL1        0.0636
     41 H          -2.8569   -1.4193    1.8329 H       1  UNL1        0.0636
     42 H          -3.6444    4.3469    0.1808 H       1  UNL1        0.0234
     43 H          -3.0407    3.6862    1.7074 H       1  UNL1        0.0234
     44 H          -4.7864    3.8990    1.4598 H       1  UNL1        0.0234
     45 H           6.3084   -0.0493    2.3780 H       1  UNL1        0.0652
     46 H          -6.4480   -1.4587   -1.5916 H       1  UNL1        0.0618
     47 H          -4.7768   -2.9443    2.0779 H       1  UNL1        0.0618
     48 H          -6.5787   -2.9683    0.3729 H       1  UNL1        0.0618
     49 H           8.5867   -0.8529    1.1024 H       1  UNL1        0.0649
     50 H           7.9310   -0.7675   -1.5812 H       1  UNL1        0.1029
@<TRIPOS>BOND
     1     1    13    2
     2     2    15   ar
     3     2    24   ar
     4     3     8    1
     5     3     9    1
     6     3    10    1
     7     4     5    1
     8     4    12    1
     9     4    13   am
    10     5     6    1
    11     5     7    1
    12     5    25    1
    13     6     8    1
    14     6    26    1
    15     6    27    1
    16     7     9    1
    17     7    28    1
    18     7    29    1
    19     8    30    1
    20     8    31    1
    21     9    32    1
    22     9    33    1
    23    10    11    1
    24    10    34    1
    25    10    35    1
    26    11    15    1
    27    11    36    1
    28    11    37    1
    29    12    16   ar
    30    12    17   ar
    31    13    14    1
    32    14    18    1
    33    14    38    1
    34    14    39    1
    35    15    19   ar
    36    16    20   ar
    37    16    40    1
    38    17    21   ar
    39    17    41    1
    40    18    42    1
    41    18    43    1
    42    18    44    1
    43    19    23   ar
    44    19    45    1
    45    20    22   ar
    46    20    46    1
    47    21    22   ar
    48    21    47    1
    49    22    48    1
    50    23    24   ar
    51    23    49    1
    52    24    50    1
@<TRIPOS>MOLECULE
137700539
 59 61 0 0 0
SMALL
GASTEIGER

@<TRIPOS>ATOM
      1 O          -2.1394    1.7585   -1.5547 O.2     1  UNL1       -0.2752
      2 N           1.7322   -0.2649   -0.4784 N.3     1  UNL1       -0.3019
      3 N          -2.5012   -0.2659   -0.3857 N.am    1  UNL1       -0.2683
      4 C          -1.1455   -0.7294   -0.2252 C.3     1  UNL1        0.0334
      5 C          -0.3725    0.1577    0.7511 C.3     1  UNL1       -0.0210
      6 C          -0.4255   -0.7838   -1.5723 C.3     1  UNL1       -0.0210
      7 C           1.0940   -0.2674    0.8453 C.3     1  UNL1        0.0006
      8 C           1.0430   -1.1768   -1.4019 C.3     1  UNL1        0.0006
      9 C           3.1458   -0.6236   -0.3654 C.3     1  UNL1        0.0029
     10 C           3.9874    0.5871    0.0393 C.3     1  UNL1       -0.0149
     11 C          -2.8277    1.0560   -0.8099 C.2     1  UNL1        0.2200
     12 C          -3.5745   -1.1785    0.0050 C.ar    1  UNL1        0.0366
     13 C          -4.1738    1.5817   -0.3145 C.3     1  UNL1        0.0245
     14 C           5.4507    0.2361    0.1379 C.ar    1  UNL1       -0.0462
     15 C          -4.2169    3.1007   -0.1246 C.3     1  UNL1       -0.0450
     16 C          -4.5687   -1.5189   -0.9121 C.ar    1  UNL1       -0.0403
     17 C          -3.6043   -1.7085    1.2948 C.ar    1  UNL1       -0.0403
     18 C          -3.1838    3.5925    0.8926 C.3     1  UNL1       -0.0555
     19 C          -5.5930   -2.3894   -0.5393 C.ar    1  UNL1       -0.0600
     20 C          -4.6284   -2.5790    1.6676 C.ar    1  UNL1       -0.0600
     21 C           5.9804   -0.2130    1.3476 C.ar    1  UNL1       -0.0585
     22 C           6.2744    0.3605   -0.9807 C.ar    1  UNL1       -0.0585
     23 C          -5.6229   -2.9194    0.7506 C.ar    1  UNL1       -0.0616
     24 C          -3.2493    5.1021    1.0640 C.3     1  UNL1       -0.0653
     25 C           7.3340   -0.5375    1.4386 C.ar    1  UNL1       -0.0615
     26 C           7.6278    0.0360   -0.8898 C.ar    1  UNL1       -0.0615
     27 C           8.1577   -0.4129    0.3199 C.ar    1  UNL1       -0.0617
     28 H          -1.1542   -1.7518    0.1765 H       1  UNL1        0.0505
     29 H          -0.8311    0.1120    1.7463 H       1  UNL1        0.0296
     30 H          -0.4129    1.2100    0.4425 H       1  UNL1        0.0296
     31 H          -0.4590    0.1794   -2.0920 H       1  UNL1        0.0296
     32 H          -0.9232   -1.5053   -2.2322 H       1  UNL1        0.0296
     33 H           1.1548   -1.2616    1.3078 H       1  UNL1        0.0427
     34 H           1.5968    0.4332    1.5208 H       1  UNL1        0.0427
     35 H           1.5174   -1.1385   -2.3903 H       1  UNL1        0.0427
     36 H           1.1099   -2.2142   -1.0481 H       1  UNL1        0.0427
     37 H           3.2964   -1.4653    0.3240 H       1  UNL1        0.0430
     38 H           3.5218   -0.9655   -1.3399 H       1  UNL1        0.0430
     39 H           3.6622    0.9977    1.0026 H       1  UNL1        0.0326
     40 H           3.8572    1.3996   -0.6881 H       1  UNL1        0.0326
     41 H          -4.9373    1.2982   -1.0471 H       1  UNL1        0.0358
     42 H          -4.4342    1.1262    0.6463 H       1  UNL1        0.0358
     43 H          -5.2231    3.3882    0.2034 H       1  UNL1        0.0270
     44 H          -4.0421    3.5949   -1.0882 H       1  UNL1        0.0270
     45 H          -4.5527   -1.1212   -1.9235 H       1  UNL1        0.0636
     46 H          -2.8439   -1.4470    2.0255 H       1  UNL1        0.0636
     47 H          -2.1696    3.3222    0.5807 H       1  UNL1        0.0263
     48 H          -3.3621    3.1119    1.8616 H       1  UNL1        0.0263
     49 H          -6.3661   -2.6561   -1.2540 H       1  UNL1        0.0618
     50 H          -4.6529   -2.9900    2.6726 H       1  UNL1        0.0618
     51 H           5.3482   -0.3161    2.2256 H       1  UNL1        0.0620
     52 H           5.8729    0.7075   -1.9292 H       1  UNL1        0.0620
     53 H          -6.4203   -3.5971    1.0409 H       1  UNL1        0.0618
     54 H          -4.2381    5.4147    1.4146 H       1  UNL1        0.0230
     55 H          -2.5086    5.4326    1.7988 H       1  UNL1        0.0230
     56 H          -3.0418    5.6134    0.1186 H       1  UNL1        0.0230
     57 H           7.7465   -0.8876    2.3804 H       1  UNL1        0.0618
     58 H           8.2692    0.1324   -1.7610 H       1  UNL1        0.0618
     59 H           9.2115   -0.6658    0.3906 H       1  UNL1        0.0618
@<TRIPOS>BOND
     1     1    11    2
     2     2     7    1
     3     2     8    1
     4     2     9    1
     5     3     4    1
     6     3    11   am
     7     3    12    1
     8     4     5    1
     9     4     6    1
    10     4    28    1
    11     5     7    1
    12     5    29    1
    13     5    30    1
    14     6     8    1
    15     6    31    1
    16     6    32    1
    17     7    33    1
    18     7    34    1
    19     8    35    1
    20     8    36    1
    21     9    10    1
    22     9    37    1
    23     9    38    1
    24    10    14    1
    25    10    39    1
    26    10    40    1
    27    11    13    1
    28    12    16   ar
    29    12    17   ar
    30    13    15    1
    31    13    41    1
    32    13    42    1
    33    14    21   ar
    34    14    22   ar
    35    15    18    1
    36    15    43    1
    37    15    44    1
    38    16    19   ar
    39    16    45    1
    40    17    20   ar
    41    17    46    1
    42    18    24    1
    43    18    47    1
    44    18    48    1
    45    19    23   ar
    46    19    49    1
    47    20    23   ar
    48    20    50    1
    49    21    25   ar
    50    21    51    1
    51    22    26   ar
    52    22    52    1
    53    23    53    1
    54    24    54    1
    55    24    55    1
    56    24    56    1
    57    25    27   ar
    58    25    57    1
    59    26    27   ar
    60    26    58    1
    61    27    59    1
@<TRIPOS>MOLECULE
156589019
 47 49 0 0 0
SMALL
GASTEIGER

@<TRIPOS>ATOM
      1 O           0.6751    1.9415    1.3840 O.2     1  UNL1       -0.2696
      2 N           4.6983    0.3751    0.0243 N.3     1  UNL1       -0.3052
      3 N           0.4915   -0.0955    0.1573 N.am    1  UNL1       -0.2643
      4 C           1.8827   -0.4106   -0.0509 C.3     1  UNL1        0.0337
      5 C           2.6687   -0.3219    1.2575 C.3     1  UNL1       -0.0210
      6 C           2.4982    0.5126   -1.1022 C.3     1  UNL1       -0.0210
      7 C           4.1616   -0.5630    1.0199 C.3     1  UNL1        0.0003
      8 C           3.9972    0.2448   -1.2603 C.3     1  UNL1        0.0003
      9 C           6.1352    0.1659   -0.1533 C.3     1  UNL1       -0.0128
     10 C          -0.5167   -1.1166   -0.1341 C.ar    1  UNL1        0.0371
     11 C           0.0644    1.1774    0.6376 C.2     1  UNL1        0.2511
     12 C          -1.3653   -1.5684    0.8765 C.ar    1  UNL1       -0.0373
     13 C          -0.6284   -1.6374   -1.4233 C.ar    1  UNL1       -0.0402
     14 C          -1.2689    1.6466    0.2141 C.ar    1  UNL1        0.0372
     15 C          -2.3255   -2.5410    0.5980 C.ar    1  UNL1       -0.0487
     16 C          -1.5887   -2.6100   -1.7018 C.ar    1  UNL1       -0.0598
     17 C          -2.4372   -3.0618   -0.6912 C.ar    1  UNL1       -0.0587
     18 C          -1.5494    1.8201   -1.1411 C.ar    1  UNL1       -0.0496
     19 C          -2.2492    1.9153    1.1693 C.ar    1  UNL1       -0.0496
     20 C          -3.2327   -3.0243    1.6784 C.3     1  UNL1       -0.0397
     21 C          -2.8103    2.2625   -1.5414 C.ar    1  UNL1       -0.0610
     22 C          -3.5101    2.3576    0.7690 C.ar    1  UNL1       -0.0610
     23 C          -3.7906    2.5313   -0.5863 C.ar    1  UNL1       -0.0617
     24 H           1.9621   -1.4444   -0.4145 H       1  UNL1        0.0505
     25 H           2.5657    0.6556    1.7377 H       1  UNL1        0.0296
     26 H           2.2868   -1.0598    1.9738 H       1  UNL1        0.0296
     27 H           1.9980    0.3726   -2.0681 H       1  UNL1        0.0296
     28 H           2.3534    1.5661   -0.8299 H       1  UNL1        0.0296
     29 H           4.6851   -0.4311    1.9748 H       1  UNL1        0.0427
     30 H           4.3205   -1.6025    0.7036 H       1  UNL1        0.0427
     31 H           4.1489   -0.7545   -1.6894 H       1  UNL1        0.0427
     32 H           4.3990    0.9708   -1.9776 H       1  UNL1        0.0427
     33 H           6.6653    0.3121    0.7944 H       1  UNL1        0.0391
     34 H           6.5462    0.8973   -0.8580 H       1  UNL1        0.0391
     35 H           6.3646   -0.8391   -0.5257 H       1  UNL1        0.0391
     36 H          -1.2726   -1.1718    1.8849 H       1  UNL1        0.0639
     37 H           0.0214   -1.2913   -2.2225 H       1  UNL1        0.0636
     38 H          -1.6763   -3.0145   -2.7059 H       1  UNL1        0.0618
     39 H          -3.1801   -3.8210   -0.9209 H       1  UNL1        0.0620
     40 H          -0.7928    1.6235   -1.8965 H       1  UNL1        0.0625
     41 H          -2.0442    1.7808    2.2282 H       1  UNL1        0.0625
     42 H          -2.7594   -3.8441    2.2277 H       1  UNL1        0.0278
     43 H          -4.1839   -3.3811    1.2688 H       1  UNL1        0.0278
     44 H          -3.4694   -2.2188    2.3818 H       1  UNL1        0.0278
     45 H          -3.0281    2.3992   -2.5965 H       1  UNL1        0.0618
     46 H          -4.2739    2.5659    1.5126 H       1  UNL1        0.0618
     47 H          -4.7723    2.8757   -0.8978 H       1  UNL1        0.0618
@<TRIPOS>BOND
     1     1    11    2
     2     2     7    1
     3     2     8    1
     4     2     9    1
     5     3     4    1
     6     3    10    1
     7     3    11   am
     8     4     5    1
     9     4     6    1
    10     4    24    1
    11     5     7    1
    12     5    25    1
    13     5    26    1
    14     6     8    1
    15     6    27    1
    16     6    28    1
    17     7    29    1
    18     7    30    1
    19     8    31    1
    20     8    32    1
    21     9    33    1
    22     9    34    1
    23     9    35    1
    24    10    12   ar
    25    10    13   ar
    26    11    14    1
    27    12    15   ar
    28    12    36    1
    29    13    16   ar
    30    13    37    1
    31    14    18   ar
    32    14    19   ar
    33    15    17   ar
    34    15    20    1
    35    16    17   ar
    36    16    38    1
    37    17    39    1
    38    18    21   ar
    39    18    40    1
    40    19    22   ar
    41    19    41    1
    42    20    42    1
    43    20    43    1
    44    20    44    1
    45    21    23   ar
    46    21    45    1
    47    22    23   ar
    48    22    46    1
    49    23    47    1
@<TRIPOS>MOLECULE
15358486
 59 61 0 0 0
SMALL
GASTEIGER

@<TRIPOS>ATOM
      1 O           0.0146   -1.6403    1.8965 O.3     1  UNL1       -0.4677
      2 O           1.3166    0.2650    2.0025 O.2     1  UNL1       -0.2504
      3 O           2.6653    2.6116    0.9348 O.2     1  UNL1       -0.2753
      4 N          -1.5322    0.7294   -0.2680 N.3     1  UNL1       -0.3011
      5 N           2.7129    0.6231   -0.3505 N.am    1  UNL1       -0.2675
      6 C           1.3411    0.5550   -0.7909 C.3     1  UNL1        0.0463
      7 C           0.5764   -0.5975   -0.1268 C.3     1  UNL1        0.0880
      8 C           0.6259    1.8940   -0.5981 C.3     1  UNL1       -0.0203
      9 C          -0.9077   -0.5793   -0.5211 C.3     1  UNL1        0.0136
     10 C          -0.8457    1.7994   -1.0032 C.3     1  UNL1        0.0006
     11 C          -2.9515    0.6956   -0.6203 C.3     1  UNL1        0.0029
     12 C           0.6959   -0.5815    1.3736 C.2     1  UNL1        0.3130
     13 C          -3.7570   -0.0777    0.4244 C.3     1  UNL1       -0.0149
     14 C           3.5624   -0.5506   -0.5328 C.ar    1  UNL1        0.0366
     15 C           3.2774    1.7842    0.2547 C.2     1  UNL1        0.2198
     16 C           4.7611    2.0031   -0.0273 C.3     1  UNL1        0.0217
     17 C          -5.2193   -0.1394    0.0614 C.ar    1  UNL1       -0.0462
     18 C           4.1458   -1.1678    0.5738 C.ar    1  UNL1       -0.0403
     19 C           3.7899   -1.0552   -1.8132 C.ar    1  UNL1       -0.0403
     20 C           5.1528    3.4729   -0.0166 C.3     1  UNL1       -0.0570
     21 C           0.0457   -1.7474    3.3233 C.3     1  UNL1        0.0817
     22 C          -6.0899    0.8574    0.5020 C.ar    1  UNL1       -0.0585
     23 C          -5.7014   -1.1930   -0.7154 C.ar    1  UNL1       -0.0585
     24 C           4.9569   -2.2892    0.4001 C.ar    1  UNL1       -0.0600
     25 C           4.6009   -2.1767   -1.9869 C.ar    1  UNL1       -0.0600
     26 C           5.1844   -2.7937   -0.8801 C.ar    1  UNL1       -0.0616
     27 C          -7.4425    0.8007    0.1661 C.ar    1  UNL1       -0.0615
     28 C          -7.0540   -1.2495   -1.0514 C.ar    1  UNL1       -0.0615
     29 C          -7.9246   -0.2527   -0.6106 C.ar    1  UNL1       -0.0617
     30 H           1.3610    0.3667   -1.8731 H       1  UNL1        0.0513
     31 H           1.0093   -1.5510   -0.4581 H       1  UNL1        0.0445
     32 H           1.1084    2.6876   -1.1813 H       1  UNL1        0.0296
     33 H           0.6009    2.2042    0.4506 H       1  UNL1        0.0296
     34 H          -0.9827   -0.8244   -1.5902 H       1  UNL1        0.0435
     35 H          -1.4314   -1.3810    0.0065 H       1  UNL1        0.0435
     36 H          -0.9211    1.6390   -2.0869 H       1  UNL1        0.0427
     37 H          -1.3180    2.7654   -0.7852 H       1  UNL1        0.0427
     38 H          -3.1033    0.2799   -1.6256 H       1  UNL1        0.0430
     39 H          -3.3498    1.7192   -0.6503 H       1  UNL1        0.0430
     40 H          -3.6457    0.3927    1.4107 H       1  UNL1        0.0326
     41 H          -3.4012   -1.1061    0.5483 H       1  UNL1        0.0326
     42 H           5.3402    1.4701    0.7338 H       1  UNL1        0.0356
     43 H           5.0203    1.5968   -1.0103 H       1  UNL1        0.0356
     44 H           3.9760   -0.7884    1.5779 H       1  UNL1        0.0636
     45 H           3.3523   -0.5811   -2.6875 H       1  UNL1        0.0636
     46 H           6.2126    3.5870   -0.2644 H       1  UNL1        0.0234
     47 H           4.5644    4.0392   -0.7460 H       1  UNL1        0.0234
     48 H           4.9842    3.9188    0.9691 H       1  UNL1        0.0234
     49 H          -5.7259    1.6842    1.1060 H       1  UNL1        0.0620
     50 H          -5.0326   -1.9743   -1.0667 H       1  UNL1        0.0620
     51 H           1.0759   -1.8693    3.6714 H       1  UNL1        0.0661
     52 H          -0.4151   -0.8657    3.7786 H       1  UNL1        0.0661
     53 H          -0.5292   -2.6318    3.6105 H       1  UNL1        0.0661
     54 H           5.4107   -2.7699    1.2618 H       1  UNL1        0.0618
     55 H           4.7802   -2.5683   -2.9839 H       1  UNL1        0.0618
     56 H           5.8163   -3.6666   -1.0155 H       1  UNL1        0.0618
     57 H          -8.1203    1.5770    0.5088 H       1  UNL1        0.0618
     58 H          -7.4295   -2.0694   -1.6568 H       1  UNL1        0.0618
     59 H          -8.9777   -0.2968   -0.8725 H       1  UNL1        0.0618
@<TRIPOS>BOND
     1     1    12    1
     2     1    21    1
     3     2    12    2
     4     3    15    2
     5     4     9    1
     6     4    10    1
     7     4    11    1
     8     5     6    1
     9     5    14    1
    10     5    15   am
    11     6     7    1
    12     6     8    1
    13     6    30    1
    14     7     9    1
    15     7    12    1
    16     7    31    1
    17     8    10    1
    18     8    32    1
    19     8    33    1
    20     9    34    1
    21     9    35    1
    22    10    36    1
    23    10    37    1
    24    11    13    1
    25    11    38    1
    26    11    39    1
    27    13    17    1
    28    13    40    1
    29    13    41    1
    30    14    18   ar
    31    14    19   ar
    32    15    16    1
    33    16    20    1
    34    16    42    1
    35    16    43    1
    36    17    22   ar
    37    17    23   ar
    38    18    24   ar
    39    18    44    1
    40    19    25   ar
    41    19    45    1
    42    20    46    1
    43    20    47    1
    44    20    48    1
    45    21    51    1
    46    21    52    1
    47    21    53    1
    48    22    27   ar
    49    22    49    1
    50    23    28   ar
    51    23    50    1
    52    24    26   ar
    53    24    54    1
    54    25    26   ar
    55    25    55    1
    56    26    56    1
    57    27    29   ar
    58    27    57    1
    59    28    29   ar
    60    28    58    1
    61    29    59    1
@<TRIPOS>MOLECULE
14969497
 40 41 0 0 0
SMALL
GASTEIGER

@<TRIPOS>ATOM
      1 O          -0.1248   -2.9174    0.4554 O.2     1  UNL1       -0.2753
      2 N           0.1257   -0.5652    0.3250 N.am    1  UNL1       -0.2680
      3 N          -3.7684    1.0972   -0.0871 N.3     1  UNL1       -0.3156
      4 C          -1.2434   -0.2021    0.5929 C.3     1  UNL1        0.0360
      5 C          -2.2282   -0.8377   -0.4103 C.3     1  UNL1       -0.0122
      6 C          -1.4146    1.3186    0.6589 C.3     1  UNL1       -0.0210
      7 C          -3.6569   -0.3635   -0.0878 C.3     1  UNL1        0.0002
      8 C          -2.8744    1.6997    0.9023 C.3     1  UNL1       -0.0024
      9 C          -1.8747   -0.5467   -1.8764 C.3     1  UNL1       -0.0596
     10 C           1.0961    0.5009    0.0904 C.ar    1  UNL1        0.0366
     11 C           0.5762   -1.9178    0.2783 C.2     1  UNL1        0.2198
     12 C           2.0715   -2.0915    0.0271 C.3     1  UNL1        0.0217
     13 C           1.2740    0.9223   -1.1941 C.ar    1  UNL1       -0.0403
     14 C           1.7578    1.0028    1.1717 C.ar    1  UNL1       -0.0403
     15 C           2.4944   -3.5516   -0.0277 C.3     1  UNL1       -0.0570
     16 C           2.2004    1.9407   -1.4183 C.ar    1  UNL1       -0.0600
     17 C           2.6842    2.0212    0.9474 C.ar    1  UNL1       -0.0600
     18 C           2.9054    2.4902   -0.3476 C.ar    1  UNL1       -0.0616
     19 H          -1.4755   -0.6176    1.5839 H       1  UNL1        0.0508
     20 H          -2.2258   -1.9277   -0.2929 H       1  UNL1        0.0328
     21 H          -1.1027    1.8144   -0.2673 H       1  UNL1        0.0296
     22 H          -0.8280    1.7483    1.4791 H       1  UNL1        0.0296
     23 H          -4.3574   -0.7692   -0.8269 H       1  UNL1        0.0427
     24 H          -3.9697   -0.7582    0.8873 H       1  UNL1        0.0427
     25 H          -3.1786    1.3985    1.9124 H       1  UNL1        0.0425
     26 H          -2.9748    2.7896    0.8525 H       1  UNL1        0.0425
     27 H          -4.7302    1.3602    0.1261 H       1  UNL1        0.1219
     28 H          -1.7836    0.5233   -2.0830 H       1  UNL1        0.0233
     29 H          -0.9415   -1.0408   -2.1610 H       1  UNL1        0.0233
     30 H          -2.6519   -0.9433   -2.5396 H       1  UNL1        0.0233
     31 H           2.6339   -1.6076    0.8316 H       1  UNL1        0.0356
     32 H           2.3376   -1.6315   -0.9293 H       1  UNL1        0.0356
     33 H           0.7436    0.4953   -2.0356 H       1  UNL1        0.0636
     34 H           1.5861    0.6376    2.1788 H       1  UNL1        0.0636
     35 H           3.5699   -3.6296   -0.2149 H       1  UNL1        0.0234
     36 H           1.9688   -4.0836   -0.8276 H       1  UNL1        0.0234
     37 H           2.2748   -4.0609    0.9165 H       1  UNL1        0.0234
     38 H           2.3750    2.3036   -2.4269 H       1  UNL1        0.0618
     39 H           3.2334    2.4489    1.7810 H       1  UNL1        0.0618
     40 H           3.6273    3.2826   -0.5222 H       1  UNL1        0.0618
@<TRIPOS>BOND
     1     1    11    2
     2     2     4    1
     3     2    10    1
     4     2    11   am
     5     3     7    1
     6     3     8    1
     7     3    27    1
     8     4     5    1
     9     4     6    1
    10     4    19    1
    11     5     7    1
    12     5     9    1
    13     5    20    1
    14     6     8    1
    15     6    21    1
    16     6    22    1
    17     7    23    1
    18     7    24    1
    19     8    25    1
    20     8    26    1
    21     9    28    1
    22     9    29    1
    23     9    30    1
    24    10    13   ar
    25    10    14   ar
    26    11    12    1
    27    12    15    1
    28    12    31    1
    29    12    32    1
    30    13    16   ar
    31    13    33    1
    32    14    17   ar
    33    14    34    1
    34    15    35    1
    35    15    36    1
    36    15    37    1
    37    16    18   ar
    38    16    38    1
    39    17    18   ar
    40    17    39    1
    41    18    40    1
@<TRIPOS>MOLECULE
137700473
 55 57 0 0 0
SMALL
GASTEIGER

@<TRIPOS>ATOM
      1 O          -1.9997    2.4465   -0.5450 O.2     1  UNL1       -0.2521
      2 N           1.6711    0.1276   -0.3796 N.3     1  UNL1       -0.3019
      3 N          -2.5558    0.2142   -0.1444 N.am    1  UNL1       -0.2523
      4 N          -3.9281    2.0088    0.6530 N.am    1  UNL1       -0.2913
      5 C          -1.2184   -0.3136   -0.2505 C.3     1  UNL1        0.0349
      6 C          -0.5274    0.2034   -1.5120 C.3     1  UNL1       -0.0210
      7 C          -0.3895    0.0348    0.9861 C.3     1  UNL1       -0.0210
      8 C           0.9259   -0.2687   -1.5825 C.3     1  UNL1        0.0006
      9 C           1.0589   -0.4329    0.8331 C.3     1  UNL1        0.0006
     10 C           3.0700   -0.2870   -0.4849 C.3     1  UNL1        0.0029
     11 C           3.9703    0.5998    0.3758 C.3     1  UNL1       -0.0149
     12 C          -3.6949   -0.6909   -0.1460 C.ar    1  UNL1        0.0380
     13 C          -2.7651    1.6174   -0.0384 C.2     1  UNL1        0.3088
     14 C           5.4188    0.1969    0.2591 C.ar    1  UNL1       -0.0462
     15 C          -4.9211   -0.2678   -0.6592 C.ar    1  UNL1       -0.0402
     16 C          -3.5610   -1.9814    0.3658 C.ar    1  UNL1       -0.0402
     17 C           5.9519   -0.7508    1.1329 C.ar    1  UNL1       -0.0585
     18 C           6.2255    0.7719   -0.7227 C.ar    1  UNL1       -0.0585
     19 C          -6.0134   -1.1354   -0.6605 C.ar    1  UNL1       -0.0600
     20 C          -4.6531   -2.8490    0.3646 C.ar    1  UNL1       -0.0600
     21 C          -4.4801    1.2254    1.7495 C.3     1  UNL1        0.0043
     22 C          -4.6609    3.2282    0.3173 C.3     1  UNL1        0.0043
     23 C          -5.8794   -2.4260   -0.1486 C.ar    1  UNL1       -0.0616
     24 C           7.2919   -1.1232    1.0248 C.ar    1  UNL1       -0.0615
     25 C           7.5653    0.3995   -0.8309 C.ar    1  UNL1       -0.0615
     26 C           8.0985   -0.5480    0.0430 C.ar    1  UNL1       -0.0617
     27 H          -1.2355   -1.4032   -0.3544 H       1  UNL1        0.0506
     28 H          -1.0681   -0.1456   -2.4008 H       1  UNL1        0.0296
     29 H          -0.4966    1.2916   -1.5837 H       1  UNL1        0.0296
     30 H          -0.8322   -0.4312    1.8751 H       1  UNL1        0.0296
     31 H          -0.3921    1.1164    1.1720 H       1  UNL1        0.0296
     32 H           0.9549   -1.3581   -1.7177 H       1  UNL1        0.0427
     33 H           1.3832    0.1810   -2.4726 H       1  UNL1        0.0427
     34 H           1.6041   -0.1129    1.7276 H       1  UNL1        0.0427
     35 H           1.0860   -1.5306    0.8141 H       1  UNL1        0.0427
     36 H           3.4122   -0.1807   -1.5239 H       1  UNL1        0.0430
     37 H           3.1975   -1.3493   -0.2365 H       1  UNL1        0.0430
     38 H           3.6816    0.5586    1.4328 H       1  UNL1        0.0326
     39 H           3.8611    1.6517    0.0797 H       1  UNL1        0.0326
     40 H          -5.0512    0.6978   -1.1389 H       1  UNL1        0.0636
     41 H          -2.6399   -2.3381    0.8161 H       1  UNL1        0.0636
     42 H           5.3328   -1.2074    1.9005 H       1  UNL1        0.0620
     43 H           5.8212    1.5099   -1.4105 H       1  UNL1        0.0620
     44 H          -6.9636   -0.8123   -1.0756 H       1  UNL1        0.0618
     45 H          -4.5521   -3.8508    0.7718 H       1  UNL1        0.0618
     46 H          -4.5681    1.9021    2.6085 H       1  UNL1        0.0429
     47 H          -3.8241    0.4189    2.0828 H       1  UNL1        0.0429
     48 H          -5.4912    0.8792    1.5250 H       1  UNL1        0.0429
     49 H          -5.7024    2.9718    0.1040 H       1  UNL1        0.0429
     50 H          -4.2212    3.7089   -0.5606 H       1  UNL1        0.0429
     51 H          -4.6131    3.9136    1.1680 H       1  UNL1        0.0429
     52 H          -6.7294   -3.1021   -0.1510 H       1  UNL1        0.0618
     53 H           7.7070   -1.8614    1.7048 H       1  UNL1        0.0618
     54 H           8.1934    0.8469   -1.5957 H       1  UNL1        0.0618
     55 H           9.1417   -0.8381   -0.0413 H       1  UNL1        0.0618
@<TRIPOS>BOND
     1     1    13    2
     2     2     8    1
     3     2     9    1
     4     2    10    1
     5     3     5    1
     6     3    12    1
     7     3    13   am
     8     4    13   am
     9     4    21    1
    10     4    22    1
    11     5     6    1
    12     5     7    1
    13     5    27    1
    14     6     8    1
    15     6    28    1
    16     6    29    1
    17     7     9    1
    18     7    30    1
    19     7    31    1
    20     8    32    1
    21     8    33    1
    22     9    34    1
    23     9    35    1
    24    10    11    1
    25    10    36    1
    26    10    37    1
    27    11    14    1
    28    11    38    1
    29    11    39    1
    30    12    15   ar
    31    12    16   ar
    32    14    17   ar
    33    14    18   ar
    34    15    19   ar
    35    15    40    1
    36    16    20   ar
    37    16    41    1
    38    17    24   ar
    39    17    42    1
    40    18    25   ar
    41    18    43    1
    42    19    23   ar
    43    19    44    1
    44    20    23   ar
    45    20    45    1
    46    21    46    1
    47    21    47    1
    48    21    48    1
    49    22    49    1
    50    22    50    1
    51    22    51    1
    52    23    52    1
    53    24    26   ar
    54    24    53    1
    55    25    26   ar
    56    25    54    1
    57    26    55    1
@<TRIPOS>MOLECULE
165361478
 63 65 0 0 0
SMALL
GASTEIGER

@<TRIPOS>ATOM
      1 O          -4.0858    2.2346   -1.5248 O.2     1  UNL1       -0.2753
      2 O           3.1186   -2.0645   -0.9760 O.3     1  UNL1       -0.4946
      3 O           6.4958    2.0594    0.4404 O.3     1  UNL1       -0.4889
      4 O           8.3373   -0.5071   -0.7361 O.co2   1  UNL1       -0.5759
      5 O           7.8859   -0.8644    1.3824 O.2     1  UNL1        0.0416
      6 N          -0.2742    0.4576    0.1244 N.3     1  UNL1       -0.3019
      7 N          -4.4959    0.3212   -0.1850 N.am    1  UNL1       -0.2683
      8 N           7.5275   -0.5620    0.2195 N.pl3   1  UNL1        0.0835
      9 C          -3.1500   -0.0720    0.1496 C.3     1  UNL1        0.0334
     10 C          -2.3028   -0.2399   -1.1114 C.3     1  UNL1       -0.0210
     11 C          -2.5000    0.9399    1.0937 C.3     1  UNL1       -0.0210
     12 C          -0.8492   -0.5663   -0.7588 C.3     1  UNL1        0.0006
     13 C          -1.0402    0.5728    1.3731 C.3     1  UNL1        0.0006
     14 C           1.1285    0.1575    0.4105 C.3     1  UNL1        0.0030
     15 C           2.0086    0.5685   -0.7694 C.3     1  UNL1       -0.0113
     16 C          -5.5781   -0.5837    0.1990 C.ar    1  UNL1        0.0366
     17 C          -4.8167    1.5808   -0.7765 C.2     1  UNL1        0.2198
     18 C           3.4619    0.2615   -0.5090 C.ar    1  UNL1       -0.0006
     19 C          -6.2159    2.1013   -0.4605 C.3     1  UNL1        0.0217
     20 C          -6.4706   -1.0525   -0.7650 C.ar    1  UNL1       -0.0403
     21 C          -5.7179   -0.9784    1.5295 C.ar    1  UNL1       -0.0403
     22 C           3.9470   -1.0411   -0.6258 C.ar    1  UNL1        0.1300
     23 C           4.3241    1.2973   -0.1497 C.ar    1  UNL1       -0.0065
     24 C          -6.2913    3.6207   -0.4503 C.3     1  UNL1       -0.0570
     25 C          -7.5029   -1.9161   -0.3985 C.ar    1  UNL1       -0.0600
     26 C          -6.7501   -1.8420    1.8960 C.ar    1  UNL1       -0.0600
     27 C           5.6716    1.0304    0.0931 C.ar    1  UNL1        0.1977
     28 C           5.2944   -1.3079   -0.3830 C.ar    1  UNL1        0.0613
     29 C          -7.6426   -2.3109    0.9320 C.ar    1  UNL1       -0.0616
     30 C           6.1567   -0.2722   -0.0236 C.ar    1  UNL1        0.3177
     31 C           3.6987   -3.3639   -1.0718 C.3     1  UNL1        0.0788
     32 C           6.6276    2.3413    1.8318 C.3     1  UNL1        0.0791
     33 H          -3.1705   -1.0468    0.6559 H       1  UNL1        0.0505
     34 H          -2.3075    0.6642   -1.7293 H       1  UNL1        0.0296
     35 H          -2.7173   -1.0414   -1.7355 H       1  UNL1        0.0296
     36 H          -3.0531    0.9843    2.0397 H       1  UNL1        0.0296
     37 H          -2.5333    1.9515    0.6696 H       1  UNL1        0.0296
     38 H          -0.8034   -1.5580   -0.2891 H       1  UNL1        0.0427
     39 H          -0.2958   -0.6324   -1.7011 H       1  UNL1        0.0427
     40 H          -0.6111    1.3610    2.0039 H       1  UNL1        0.0427
     41 H          -0.9971   -0.3631    1.9457 H       1  UNL1        0.0427
     42 H           1.2651   -0.8980    0.6792 H       1  UNL1        0.0430
     43 H           1.4648    0.7366    1.2819 H       1  UNL1        0.0430
     44 H           1.7190    0.0648   -1.6987 H       1  UNL1        0.0327
     45 H           1.8851    1.6415   -0.9688 H       1  UNL1        0.0327
     46 H          -6.5400    1.7570    0.5263 H       1  UNL1        0.0356
     47 H          -6.9094    1.7128   -1.2133 H       1  UNL1        0.0356
     48 H          -6.3678   -0.7611   -1.8070 H       1  UNL1        0.0636
     49 H          -5.0381   -0.6158    2.2957 H       1  UNL1        0.0636
     50 H           3.9531    2.3151   -0.0558 H       1  UNL1        0.0660
     51 H          -6.0521    4.0339   -1.4356 H       1  UNL1        0.0234
     52 H          -7.2985    3.9514   -0.1786 H       1  UNL1        0.0234
     53 H          -5.5827    4.0416    0.2706 H       1  UNL1        0.0234
     54 H          -8.1966   -2.2828   -1.1494 H       1  UNL1        0.0618
     55 H          -6.8604   -2.1477    2.9323 H       1  UNL1        0.0618
     56 H           5.7283   -2.3000   -0.4581 H       1  UNL1        0.0724
     57 H          -8.4464   -2.9832    1.2174 H       1  UNL1        0.0618
     58 H           2.8974   -4.0527   -1.3594 H       1  UNL1        0.0660
     59 H           4.4557   -3.4116   -1.8621 H       1  UNL1        0.0660
     60 H           4.0800   -3.7088   -0.1046 H       1  UNL1        0.0660
     61 H           7.4166    3.0881    1.9561 H       1  UNL1        0.0660
     62 H           5.6918    2.7552    2.2207 H       1  UNL1        0.0660
     63 H           6.9010    1.4473    2.3994 H       1  UNL1        0.0660
@<TRIPOS>UNITY_ATOM_ATTR
4 1
charge -1
8 1
charge 1
@<TRIPOS>BOND
     1     1    17    2
     2     2    22    1
     3     2    31    1
     4     3    27    1
     5     3    32    1
     6     4     8    1
     7     5     8    2
     8     6    12    1
     9     6    13    1
    10     6    14    1
    11     7     9    1
    12     7    16    1
    13     7    17   am
    14     8    30    1
    15     9    10    1
    16     9    11    1
    17     9    33    1
    18    10    12    1
    19    10    34    1
    20    10    35    1
    21    11    13    1
    22    11    36    1
    23    11    37    1
    24    12    38    1
    25    12    39    1
    26    13    40    1
    27    13    41    1
    28    14    15    1
    29    14    42    1
    30    14    43    1
    31    15    18    1
    32    15    44    1
    33    15    45    1
    34    16    20   ar
    35    16    21   ar
    36    17    19    1
    37    18    22   ar
    38    18    23   ar
    39    19    24    1
    40    19    46    1
    41    19    47    1
    42    20    25   ar
    43    20    48    1
    44    21    26   ar
    45    21    49    1
    46    22    28   ar
    47    23    27   ar
    48    23    50    1
    49    24    51    1
    50    24    52    1
    51    24    53    1
    52    25    29   ar
    53    25    54    1
    54    26    29   ar
    55    26    55    1
    56    27    30   ar
    57    28    30   ar
    58    28    56    1
    59    29    57    1
    60    31    58    1
    61    31    59    1
    62    31    60    1
    63    32    61    1
    64    32    62    1
    65    32    63    1
@<TRIPOS>MOLECULE
165361479
 67 69 0 0 0
SMALL
GASTEIGER

@<TRIPOS>ATOM
      1 O          -3.7641    2.3067   -1.4081 O.2     1  UNL1       -0.2753
      2 O           3.3735   -2.1228   -1.0738 O.3     1  UNL1       -0.4948
      3 O           6.8174    1.8704    0.5403 O.3     1  UNL1       -0.4948
      4 N           0.0204    0.3939    0.1491 N.3     1  UNL1       -0.3019
      5 N          -4.2029    0.3368   -0.1625 N.am    1  UNL1       -0.2683
      6 C          -2.8631   -0.0926    0.1514 C.3     1  UNL1        0.0334
      7 C          -2.1975    0.8622    1.1429 C.3     1  UNL1       -0.0210
      8 C          -2.0188   -0.2118   -1.1172 C.3     1  UNL1       -0.0210
      9 C          -0.7435    0.4599    1.4027 C.3     1  UNL1        0.0006
     10 C          -0.5702   -0.5770   -0.7822 C.3     1  UNL1        0.0006
     11 C           1.4184    0.0590    0.4190 C.3     1  UNL1        0.0030
     12 C           2.3045    0.5134   -0.7404 C.3     1  UNL1       -0.0113
     13 C          -5.2986   -0.5692    0.1781 C.ar    1  UNL1        0.0366
     14 C          -4.5046    1.6284   -0.6917 C.2     1  UNL1        0.2198
     15 C           3.7530    0.1721   -0.4966 C.ar    1  UNL1       -0.0011
     16 C          -5.8957    2.1541   -0.3494 C.3     1  UNL1        0.0217
     17 C          -5.4441   -1.0259    1.4881 C.ar    1  UNL1       -0.0403
     18 C          -6.1984   -0.9769   -0.8066 C.ar    1  UNL1       -0.0403
     19 C           4.2181   -1.1308   -0.6748 C.ar    1  UNL1        0.1238
     20 C           4.6307    1.1762   -0.0881 C.ar    1  UNL1       -0.0130
     21 C          -5.9480    3.6722   -0.2654 C.3     1  UNL1       -0.0570
     22 C           5.9737    0.8774    0.1420 C.ar    1  UNL1        0.1237
     23 C           5.5610   -1.4296   -0.4447 C.ar    1  UNL1       -0.0131
     24 C           6.4387   -0.4254   -0.0362 C.ar    1  UNL1       -0.0025
     25 C          -6.4893   -1.8905    1.8131 C.ar    1  UNL1       -0.0600
     26 C          -7.2436   -1.8416   -0.4815 C.ar    1  UNL1       -0.0600
     27 C          -7.3891   -2.2984    0.8283 C.ar    1  UNL1       -0.0616
     28 C           7.8729   -0.7633    0.2058 C.3     1  UNL1       -0.0270
     29 C           8.1990   -0.8741    1.6923 C.3     1  UNL1       -0.0611
     30 C           3.9329   -3.4253   -1.2313 C.3     1  UNL1        0.0788
     31 C           6.2570    3.1725    0.6974 C.3     1  UNL1        0.0788
     32 H          -2.8982   -1.0904    0.6097 H       1  UNL1        0.0505
     33 H          -2.7497    0.8690    2.0905 H       1  UNL1        0.0296
     34 H          -2.2155    1.8937    0.7684 H       1  UNL1        0.0296
     35 H          -2.4456   -0.9757   -1.7791 H       1  UNL1        0.0296
     36 H          -2.0098    0.7212   -1.6904 H       1  UNL1        0.0296
     37 H          -0.3023    1.2099    2.0706 H       1  UNL1        0.0427
     38 H          -0.7145   -0.5033    1.9291 H       1  UNL1        0.0427
     39 H          -0.5394   -1.5910   -0.3613 H       1  UNL1        0.0427
     40 H          -0.0181   -0.6056   -1.7271 H       1  UNL1        0.0427
     41 H           1.7637    0.5901    1.3170 H       1  UNL1        0.0430
     42 H           1.5390   -1.0102    0.6362 H       1  UNL1        0.0430
     43 H           2.0075    0.0578   -1.6920 H       1  UNL1        0.0327
     44 H           2.1943    1.5959   -0.8903 H       1  UNL1        0.0327
     45 H          -6.2247    1.7671    0.6198 H       1  UNL1        0.0356
     46 H          -6.5952    1.8132   -1.1196 H       1  UNL1        0.0356
     47 H          -4.7588   -0.7114    2.2703 H       1  UNL1        0.0636
     48 H          -6.0914   -0.6369   -1.8334 H       1  UNL1        0.0636
     49 H           4.2126    2.1691    0.0376 H       1  UNL1        0.0658
     50 H          -5.7027    4.1291   -1.2297 H       1  UNL1        0.0234
     51 H          -6.9500    4.0045    0.0231 H       1  UNL1        0.0234
     52 H          -5.2329    4.0467    0.4744 H       1  UNL1        0.0234
     53 H           5.9767   -2.4243   -0.5639 H       1  UNL1        0.0658
     54 H          -6.6040   -2.2445    2.8335 H       1  UNL1        0.0618
     55 H          -7.9429   -2.1608   -1.2487 H       1  UNL1        0.0618
     56 H          -8.2029   -2.9715    1.0815 H       1  UNL1        0.0618
     57 H           8.5161   -0.0054   -0.2584 H       1  UNL1        0.0312
     58 H           8.1345   -1.7081   -0.2870 H       1  UNL1        0.0312
     59 H           9.2519   -1.1414    1.8272 H       1  UNL1        0.0233
     60 H           7.5883   -1.6464    2.1724 H       1  UNL1        0.0233
     61 H           8.0217    0.0693    2.2186 H       1  UNL1        0.0233
     62 H           3.1212   -4.0865   -1.5524 H       1  UNL1        0.0660
     63 H           4.6904   -3.4473   -2.0222 H       1  UNL1        0.0660
     64 H           4.3069   -3.8222   -0.2813 H       1  UNL1        0.0660
     65 H           7.0685    3.8349    1.0168 H       1  UNL1        0.0660
     66 H           5.8810    3.5684   -0.2521 H       1  UNL1        0.0660
     67 H           5.5009    3.1943    1.4897 H       1  UNL1        0.0660
@<TRIPOS>BOND
     1     1    14    2
     2     2    19    1
     3     2    30    1
     4     3    22    1
     5     3    31    1
     6     4     9    1
     7     4    10    1
     8     4    11    1
     9     5     6    1
    10     5    13    1
    11     5    14   am
    12     6     7    1
    13     6     8    1
    14     6    32    1
    15     7     9    1
    16     7    33    1
    17     7    34    1
    18     8    10    1
    19     8    35    1
    20     8    36    1
    21     9    37    1
    22     9    38    1
    23    10    39    1
    24    10    40    1
    25    11    12    1
    26    11    41    1
    27    11    42    1
    28    12    15    1
    29    12    43    1
    30    12    44    1
    31    13    17   ar
    32    13    18   ar
    33    14    16    1
    34    15    19   ar
    35    15    20   ar
    36    16    21    1
    37    16    45    1
    38    16    46    1
    39    17    25   ar
    40    17    47    1
    41    18    26   ar
    42    18    48    1
    43    19    23   ar
    44    20    22   ar
    45    20    49    1
    46    21    50    1
    47    21    51    1
    48    21    52    1
    49    22    24   ar
    50    23    24   ar
    51    23    53    1
    52    24    28    1
    53    25    27   ar
    54    25    54    1
    55    26    27   ar
    56    26    55    1
    57    27    56    1
    58    28    29    1
    59    28    57    1
    60    28    58    1
    61    29    59    1
    62    29    60    1
    63    29    61    1
    64    30    62    1
    65    30    63    1
    66    30    64    1
    67    31    65    1
    68    31    66    1
    69    31    67    1
@<TRIPOS>MOLECULE
527023
 43 44 0 0 0
SMALL
GASTEIGER

@<TRIPOS>ATOM
      1 O          -1.2036    2.7608   -0.0316 O.2     1  UNL1       -0.2752
      2 N           3.9135    0.1290    0.0131 N.3     1  UNL1       -0.3052
      3 N          -0.2977    0.5708   -0.0145 N.am    1  UNL1       -0.2683
      4 C           1.0990    0.9282   -0.0105 C.3     1  UNL1        0.0334
      5 C           1.8072    0.3956   -1.2564 C.3     1  UNL1       -0.0210
      6 C           1.7899    0.4108    1.2509 C.3     1  UNL1       -0.0210
      7 C           3.3090    0.6824   -1.2065 C.3     1  UNL1        0.0003
      8 C           3.2924    0.6959    1.2182 C.3     1  UNL1        0.0003
      9 C           5.3569    0.3664    0.0218 C.3     1  UNL1       -0.0128
     10 C          -0.6535   -0.8466   -0.0076 C.ar    1  UNL1        0.0366
     11 C          -1.3492    1.5358   -0.0250 C.2     1  UNL1        0.2200
     12 C          -2.7597    0.9525    0.0204 C.3     1  UNL1        0.0242
     13 C          -0.8020   -1.4661   -1.2126 C.ar    1  UNL1       -0.0403
     14 C          -0.8120   -1.4521    1.2034 C.ar    1  UNL1       -0.0403
     15 C          -3.8449    2.0300    0.0072 C.3     1  UNL1       -0.0476
     16 C          -1.1412   -2.8190   -1.2063 C.ar    1  UNL1       -0.0600
     17 C          -1.1513   -2.8051    1.2096 C.ar    1  UNL1       -0.0600
     18 C          -5.2370    1.4194    0.0217 C.3     1  UNL1       -0.0648
     19 C          -1.3158   -3.4886    0.0047 C.ar    1  UNL1       -0.0616
     20 H           1.1756    2.0230   -0.0167 H       1  UNL1        0.0505
     21 H           1.3748    0.8439   -2.1592 H       1  UNL1        0.0296
     22 H           1.6941   -0.6897   -1.3544 H       1  UNL1        0.0296
     23 H           1.6759   -0.6733    1.3606 H       1  UNL1        0.0296
     24 H           1.3458    0.8700    2.1425 H       1  UNL1        0.0296
     25 H           3.7735    0.2279   -2.0902 H       1  UNL1        0.0427
     26 H           3.4789    1.7653   -1.2708 H       1  UNL1        0.0427
     27 H           3.4621    1.7794    1.2728 H       1  UNL1        0.0427
     28 H           3.7445    0.2511    2.1131 H       1  UNL1        0.0427
     29 H           5.8164   -0.0891    0.9060 H       1  UNL1        0.0391
     30 H           5.6011    1.4349    0.0176 H       1  UNL1        0.0391
     31 H           5.8286   -0.0988   -0.8508 H       1  UNL1        0.0391
     32 H          -2.8752    0.3607    0.9343 H       1  UNL1        0.0358
     33 H          -2.9089    0.3063   -0.8506 H       1  UNL1        0.0358
     34 H          -0.6797   -0.9458   -2.1567 H       1  UNL1        0.0636
     35 H          -0.6976   -0.9214    2.1426 H       1  UNL1        0.0636
     36 H          -3.7296    2.6880    0.8767 H       1  UNL1        0.0267
     37 H          -3.7374    2.6592   -0.8846 H       1  UNL1        0.0267
     38 H          -1.2726   -3.3503   -2.1444 H       1  UNL1        0.0618
     39 H          -1.2904   -3.3257    2.1526 H       1  UNL1        0.0618
     40 H          -5.3964    0.7847   -0.8559 H       1  UNL1        0.0230
     41 H          -5.9966    2.2073    0.0134 H       1  UNL1        0.0230
     42 H          -5.3889    0.8104    0.9187 H       1  UNL1        0.0230
     43 H          -1.5814   -4.5416    0.0097 H       1  UNL1        0.0618
@<TRIPOS>BOND
     1     1    11    2
     2     2     7    1
     3     2     8    1
     4     2     9    1
     5     3     4    1
     6     3    10    1
     7     3    11   am
     8     4     5    1
     9     4     6    1
    10     4    20    1
    11     5     7    1
    12     5    21    1
    13     5    22    1
    14     6     8    1
    15     6    23    1
    16     6    24    1
    17     7    25    1
    18     7    26    1
    19     8    27    1
    20     8    28    1
    21     9    29    1
    22     9    30    1
    23     9    31    1
    24    10    13   ar
    25    10    14   ar
    26    11    12    1
    27    12    15    1
    28    12    32    1
    29    12    33    1
    30    13    16   ar
    31    13    34    1
    32    14    17   ar
    33    14    35    1
    34    15    18    1
    35    15    36    1
    36    15    37    1
    37    16    19   ar
    38    16    38    1
    39    17    19   ar
    40    17    39    1
    41    18    40    1
    42    18    41    1
    43    18    42    1
    44    19    43    1
@<TRIPOS>MOLECULE
621151
 56 58 0 0 0
SMALL
GASTEIGER

@<TRIPOS>ATOM
      1 O          -3.4221    3.1768    0.3552 O.2     1  UNL1       -0.2753
      2 N           1.4564    0.1268    0.4470 N.3     1  UNL1       -0.3019
      3 N          -2.6771    0.9490    0.0380 N.am    1  UNL1       -0.2683
      4 C          -1.2713    1.1701    0.2687 C.3     1  UNL1        0.0334
      5 C          -0.7833    0.3628    1.4713 C.3     1  UNL1       -0.0210
      6 C          -0.4482    0.8199   -0.9713 C.3     1  UNL1       -0.0210
      7 C           0.7270    0.5103    1.6636 C.3     1  UNL1        0.0006
      8 C           1.0510    0.9536   -0.6982 C.3     1  UNL1        0.0006
      9 C           2.8997    0.2254    0.6635 C.3     1  UNL1        0.0029
     10 C           3.6724   -0.2960   -0.5487 C.3     1  UNL1       -0.0149
     11 C          -3.1269   -0.4054   -0.2763 C.ar    1  UNL1        0.0368
     12 C          -3.6502    1.9911    0.1024 C.2     1  UNL1        0.2198
     13 C          -5.0907    1.5421   -0.1262 C.3     1  UNL1        0.0217
     14 C           5.1624   -0.2208   -0.3295 C.ar    1  UNL1       -0.0462
     15 C          -3.4796   -1.2120    0.7643 C.ar    1  UNL1       -0.0373
     16 C          -3.1624   -0.7691   -1.5895 C.ar    1  UNL1       -0.0402
     17 C          -3.9087   -2.5046    0.4631 C.ar    1  UNL1       -0.0487
     18 C          -6.0841    2.6922   -0.0619 C.3     1  UNL1       -0.0570
     19 C          -3.5915   -2.0617   -1.8906 C.ar    1  UNL1       -0.0598
     20 C           5.8482    0.9261   -0.7004 C.ar    1  UNL1       -0.0585
     21 C           5.8224   -1.2994    0.2398 C.ar    1  UNL1       -0.0585
     22 C          -3.9647   -2.9294   -0.8644 C.ar    1  UNL1       -0.0587
     23 C          -4.3084   -3.4326    1.5604 C.3     1  UNL1       -0.0397
     24 C           7.2265    0.9960   -0.4975 C.ar    1  UNL1       -0.0615
     25 C           7.2007   -1.2294    0.4428 C.ar    1  UNL1       -0.0615
     26 C           7.9026   -0.0817    0.0742 C.ar    1  UNL1       -0.0617
     27 H          -1.1203    2.2348    0.4885 H       1  UNL1        0.0505
     28 H          -1.3049    0.6840    2.3811 H       1  UNL1        0.0296
     29 H          -0.9839   -0.7074    1.3502 H       1  UNL1        0.0296
     30 H          -0.6226   -0.2124   -1.2947 H       1  UNL1        0.0296
     31 H          -0.7319    1.4687   -1.8089 H       1  UNL1        0.0296
     32 H           0.9617    1.5438    1.9510 H       1  UNL1        0.0427
     33 H           1.0287   -0.1351    2.4977 H       1  UNL1        0.0427
     34 H           1.5364    0.6393   -1.6255 H       1  UNL1        0.0427
     35 H           1.3046    2.0089   -0.5325 H       1  UNL1        0.0427
     36 H           3.1778   -0.3766    1.5387 H       1  UNL1        0.0430
     37 H           3.1944    1.2599    0.8869 H       1  UNL1        0.0430
     38 H           3.3850   -1.3330   -0.7681 H       1  UNL1        0.0326
     39 H           3.4660    0.2725   -1.4610 H       1  UNL1        0.0326
     40 H          -5.3700    0.8125    0.6402 H       1  UNL1        0.0356
     41 H          -5.1783    1.0814   -1.1148 H       1  UNL1        0.0356
     42 H          -3.4470   -0.8695    1.7939 H       1  UNL1        0.0639
     43 H          -2.8854   -0.0931   -2.3914 H       1  UNL1        0.0636
     44 H          -7.1009    2.3270   -0.2363 H       1  UNL1        0.0234
     45 H          -5.8585    3.4498   -0.8197 H       1  UNL1        0.0234
     46 H          -6.0601    3.1789    0.9188 H       1  UNL1        0.0234
     47 H          -3.6383   -2.3911   -2.9245 H       1  UNL1        0.0618
     48 H           5.3308    1.7722   -1.1436 H       1  UNL1        0.0620
     49 H           5.2842   -2.1967    0.5319 H       1  UNL1        0.0620
     50 H          -4.2998   -3.9331   -1.1122 H       1  UNL1        0.0620
     51 H          -4.1214   -4.4760    1.2844 H       1  UNL1        0.0278
     52 H          -3.7346   -3.2347    2.4722 H       1  UNL1        0.0278
     53 H          -5.3735   -3.3143    1.7828 H       1  UNL1        0.0278
     54 H           7.7730    1.8899   -0.7837 H       1  UNL1        0.0618
     55 H           7.7274   -2.0683    0.8885 H       1  UNL1        0.0618
     56 H           8.9757   -0.0272    0.2327 H       1  UNL1        0.0618
@<TRIPOS>BOND
     1     1    12    2
     2     2     7    1
     3     2     8    1
     4     2     9    1
     5     3     4    1
     6     3    11    1
     7     3    12   am
     8     4     5    1
     9     4     6    1
    10     4    27    1
    11     5     7    1
    12     5    28    1
    13     5    29    1
    14     6     8    1
    15     6    30    1
    16     6    31    1
    17     7    32    1
    18     7    33    1
    19     8    34    1
    20     8    35    1
    21     9    10    1
    22     9    36    1
    23     9    37    1
    24    10    14    1
    25    10    38    1
    26    10    39    1
    27    11    15   ar
    28    11    16   ar
    29    12    13    1
    30    13    18    1
    31    13    40    1
    32    13    41    1
    33    14    20   ar
    34    14    21   ar
    35    15    17   ar
    36    15    42    1
    37    16    19   ar
    38    16    43    1
    39    17    22   ar
    40    17    23    1
    41    18    44    1
    42    18    45    1
    43    18    46    1
    44    19    22   ar
    45    19    47    1
    46    20    24   ar
    47    20    48    1
    48    21    25   ar
    49    21    49    1
    50    22    50    1
    51    23    51    1
    52    23    52    1
    53    23    53    1
    54    24    26   ar
    55    24    54    1
    56    25    26   ar
    57    25    55    1
    58    26    56    1
@<TRIPOS>MOLECULE
6425761
 56 58 0 0 0
SMALL
GASTEIGER

@<TRIPOS>ATOM
      1 O          -3.7876   -2.9872    0.0792 O.2     1  UNL1       -0.2753
      2 N           1.1612   -0.1136   -0.5232 N.3     1  UNL1       -0.3016
      3 N          -2.9941   -0.7558   -0.0221 N.am    1  UNL1       -0.2683
      4 C          -1.5916   -1.0463   -0.1874 C.3     1  UNL1        0.0334
      5 C          -1.0737   -0.4928   -1.5146 C.3     1  UNL1       -0.0210
      6 C          -0.7723   -0.4842    0.9747 C.3     1  UNL1       -0.0210
      7 C           0.4345   -0.7059   -1.6548 C.3     1  UNL1        0.0006
      8 C           0.7258   -0.6989    0.7524 C.3     1  UNL1        0.0006
      9 C           2.6038   -0.2819   -0.6974 C.3     1  UNL1        0.0055
     10 C           3.4071    0.3320    0.4670 C.3     1  UNL1       -0.0059
     11 C          -3.4151    0.6427    0.0233 C.ar    1  UNL1        0.0366
     12 C          -3.9905   -1.7705    0.0993 C.2     1  UNL1        0.2198
     13 C           4.8970    0.0927    0.2730 C.ar    1  UNL1       -0.0433
     14 C           3.1193    1.8258    0.6657 C.3     1  UNL1       -0.0572
     15 C          -5.4222   -1.2560    0.2188 C.3     1  UNL1        0.0217
     16 C          -3.4547    1.2507    1.2425 C.ar    1  UNL1       -0.0403
     17 C          -3.7399    1.2431   -1.1565 C.ar    1  UNL1       -0.0403
     18 C           5.4404   -1.1054    0.6902 C.ar    1  UNL1       -0.0583
     19 C           5.6611    1.0806   -0.3142 C.ar    1  UNL1       -0.0583
     20 C          -6.4414   -2.3762    0.3604 C.3     1  UNL1       -0.0570
     21 C          -3.8570    2.5856    1.2861 C.ar    1  UNL1       -0.0600
     22 C          -4.1423    2.5780   -1.1129 C.ar    1  UNL1       -0.0600
     23 C           6.8063   -1.3251    0.5125 C.ar    1  UNL1       -0.0615
     24 C           7.0271    0.8610   -0.4919 C.ar    1  UNL1       -0.0615
     25 C          -4.2008    3.2492    0.1084 C.ar    1  UNL1       -0.0616
     26 C           7.5997   -0.3418   -0.0785 C.ar    1  UNL1       -0.0617
     27 H          -1.4633   -2.1363   -0.1990 H       1  UNL1        0.0505
     28 H          -1.2503    0.5850   -1.6014 H       1  UNL1        0.0296
     29 H          -1.5942   -0.9699   -2.3540 H       1  UNL1        0.0296
     30 H          -1.0790   -0.9559    1.9162 H       1  UNL1        0.0296
     31 H          -0.9255    0.5942    1.0939 H       1  UNL1        0.0296
     32 H           0.6467   -1.7800   -1.7377 H       1  UNL1        0.0427
     33 H           0.7601   -0.2373   -2.5917 H       1  UNL1        0.0427
     34 H           1.2039   -0.2255    1.6135 H       1  UNL1        0.0427
     35 H           0.9566   -1.7715    0.7930 H       1  UNL1        0.0427
     36 H           2.9136    0.2012   -1.6341 H       1  UNL1        0.0432
     37 H           2.8560   -1.3467   -0.7981 H       1  UNL1        0.0432
     38 H           3.1711   -0.1649    1.4153 H       1  UNL1        0.0359
     39 H           2.1030    1.9736    1.0484 H       1  UNL1        0.0236
     40 H           3.1806    2.3925   -0.2698 H       1  UNL1        0.0236
     41 H           3.7968    2.2795    1.3983 H       1  UNL1        0.0236
     42 H          -5.6772   -0.6798   -0.6758 H       1  UNL1        0.0356
     43 H          -5.5083   -0.6140    1.1006 H       1  UNL1        0.0356
     44 H          -3.2007    0.7343    2.1623 H       1  UNL1        0.0636
     45 H          -3.7081    0.7211   -2.1070 H       1  UNL1        0.0636
     46 H           4.8298   -1.8772    1.1492 H       1  UNL1        0.0620
     47 H           5.2559    2.0194   -0.6733 H       1  UNL1        0.0620
     48 H          -7.4511   -1.9632    0.4485 H       1  UNL1        0.0234
     49 H          -6.2407   -2.9806    1.2512 H       1  UNL1        0.0234
     50 H          -6.4196   -3.0409   -0.5097 H       1  UNL1        0.0234
     51 H          -3.9056    3.1072    2.2375 H       1  UNL1        0.0618
     52 H          -4.4131    3.0937   -2.0295 H       1  UNL1        0.0618
     53 H           7.2520   -2.2620    0.8335 H       1  UNL1        0.0618
     54 H           7.6444    1.6239   -0.9574 H       1  UNL1        0.0618
     55 H          -4.5155    4.2881    0.1425 H       1  UNL1        0.0618
     56 H           8.6630   -0.5134   -0.2183 H       1  UNL1        0.0618
@<TRIPOS>BOND
     1     1    12    2
     2     2     7    1
     3     2     8    1
     4     2     9    1
     5     3     4    1
     6     3    11    1
     7     3    12   am
     8     4     5    1
     9     4     6    1
    10     4    27    1
    11     5     7    1
    12     5    28    1
    13     5    29    1
    14     6     8    1
    15     6    30    1
    16     6    31    1
    17     7    32    1
    18     7    33    1
    19     8    34    1
    20     8    35    1
    21     9    10    1
    22     9    36    1
    23     9    37    1
    24    10    13    1
    25    10    14    1
    26    10    38    1
    27    11    16   ar
    28    11    17   ar
    29    12    15    1
    30    13    18   ar
    31    13    19   ar
    32    14    39    1
    33    14    40    1
    34    14    41    1
    35    15    20    1
    36    15    42    1
    37    15    43    1
    38    16    21   ar
    39    16    44    1
    40    17    22   ar
    41    17    45    1
    42    18    23   ar
    43    18    46    1
    44    19    24   ar
    45    19    47    1
    46    20    48    1
    47    20    49    1
    48    20    50    1
    49    21    25   ar
    50    21    51    1
    51    22    25   ar
    52    22    52    1
    53    23    26   ar
    54    23    53    1
    55    24    26   ar
    56    24    54    1
    57    25    55    1
    58    26    56    1
@<TRIPOS>MOLECULE
137700357
 54 56 0 0 0
SMALL
GASTEIGER

@<TRIPOS>ATOM
      1 O          -2.2120    2.3688    0.6742 O.2     1  UNL1       -0.2703
      2 N           1.7275    0.1783    0.4363 N.3     1  UNL1       -0.3019
      3 N          -2.4933    0.0823    0.1110 N.am    1  UNL1       -0.2648
      4 C          -1.1366   -0.3875    0.2420 C.3     1  UNL1        0.0337
      5 C          -0.3006    0.0174   -0.9718 C.3     1  UNL1       -0.0210
      6 C          -0.4934    0.1387    1.5254 C.3     1  UNL1       -0.0210
      7 C           1.1642   -0.3875   -0.7974 C.3     1  UNL1        0.0006
      8 C           0.9775   -0.2712    1.6174 C.3     1  UNL1        0.0006
      9 C           3.1411   -0.1760    0.5625 C.3     1  UNL1        0.0029
     10 C           3.9998    0.6456   -0.3994 C.3     1  UNL1       -0.0149
     11 C          -3.5651   -0.9156    0.0734 C.ar    1  UNL1        0.0369
     12 C          -2.8224    1.4671    0.0995 C.2     1  UNL1        0.2436
     13 C           5.4576    0.2744   -0.2950 C.ar    1  UNL1       -0.0462
     14 C          -3.3428   -2.1559   -0.5246 C.ar    1  UNL1       -0.0403
     15 C          -4.8087   -0.6247    0.6344 C.ar    1  UNL1       -0.0403
     16 C          -4.0369    1.8132   -0.6976 C.2     1  UNL1       -0.0035
     17 C           6.2850    0.9429    0.6072 C.ar    1  UNL1       -0.0585
     18 C           5.9787   -0.7377   -1.1011 C.ar    1  UNL1       -0.0585
     19 C          -4.3639   -3.1054   -0.5618 C.ar    1  UNL1       -0.0600
     20 C          -5.8299   -1.5742    0.5973 C.ar    1  UNL1       -0.0600
     21 C          -5.6075   -2.8145   -0.0007 C.ar    1  UNL1       -0.0616
     22 C          -4.7948    2.8620   -0.3497 C.2     1  UNL1       -0.0822
     23 C           7.6335    0.5994    0.7035 C.ar    1  UNL1       -0.0615
     24 C           7.3271   -1.0811   -1.0049 C.ar    1  UNL1       -0.0615
     25 C           8.1546   -0.4126   -0.1026 C.ar    1  UNL1       -0.0617
     26 C          -6.0387    3.2538   -1.0777 C.3     1  UNL1       -0.0464
     27 H          -1.1056   -1.4789    0.3295 H       1  UNL1        0.0505
     28 H          -0.3535    1.1019   -1.1347 H       1  UNL1        0.0296
     29 H          -0.7043   -0.4509   -1.8780 H       1  UNL1        0.0296
     30 H          -1.0367   -0.2404    2.3998 H       1  UNL1        0.0296
     31 H          -0.5194    1.2288    1.5941 H       1  UNL1        0.0296
     32 H           1.6977   -0.0277   -1.6824 H       1  UNL1        0.0427
     33 H           1.2420   -1.4829   -0.7965 H       1  UNL1        0.0427
     34 H           1.0514   -1.3605    1.7354 H       1  UNL1        0.0427
     35 H           1.3985    0.1825    2.5231 H       1  UNL1        0.0427
     36 H           3.4876    0.0438    1.5818 H       1  UNL1        0.0430
     37 H           3.2975   -1.2530    0.4131 H       1  UNL1        0.0430
     38 H           3.8806    1.7174   -0.1912 H       1  UNL1        0.0326
     39 H           3.6953    0.5127   -1.4432 H       1  UNL1        0.0326
     40 H          -2.4049   -2.4067   -1.0110 H       1  UNL1        0.0636
     41 H          -5.0034    0.2994    1.1702 H       1  UNL1        0.0636
     42 H          -4.2847    1.2001   -1.5578 H       1  UNL1        0.0666
     43 H           5.8902    1.7319    1.2418 H       1  UNL1        0.0620
     44 H           5.3437   -1.2674   -1.8063 H       1  UNL1        0.0620
     45 H          -4.1943   -4.0679   -1.0355 H       1  UNL1        0.0618
     46 H          -6.7935   -1.3539    1.0474 H       1  UNL1        0.0618
     47 H          -6.4021   -3.5543   -0.0284 H       1  UNL1        0.0618
     48 H          -4.5360    3.4669    0.5152 H       1  UNL1        0.0571
     49 H           8.2777    1.1196    1.4064 H       1  UNL1        0.0618
     50 H           7.7328   -1.8696   -1.6321 H       1  UNL1        0.0618
     51 H           9.2044   -0.6803   -0.0276 H       1  UNL1        0.0618
     52 H          -5.9419    4.2755   -1.4573 H       1  UNL1        0.0272
     53 H          -6.2495    2.5933   -1.9247 H       1  UNL1        0.0272
     54 H          -6.8949    3.2189   -0.3970 H       1  UNL1        0.0272
@<TRIPOS>BOND
     1     1    12    2
     2     2     7    1
     3     2     8    1
     4     2     9    1
     5     3     4    1
     6     3    11    1
     7     3    12   am
     8     4     5    1
     9     4     6    1
    10     4    27    1
    11     5     7    1
    12     5    28    1
    13     5    29    1
    14     6     8    1
    15     6    30    1
    16     6    31    1
    17     7    32    1
    18     7    33    1
    19     8    34    1
    20     8    35    1
    21     9    10    1
    22     9    36    1
    23     9    37    1
    24    10    13    1
    25    10    38    1
    26    10    39    1
    27    11    14   ar
    28    11    15   ar
    29    12    16    1
    30    13    17   ar
    31    13    18   ar
    32    14    19   ar
    33    14    40    1
    34    15    20   ar
    35    15    41    1
    36    16    22    2
    37    16    42    1
    38    17    23   ar
    39    17    43    1
    40    18    24   ar
    41    18    44    1
    42    19    21   ar
    43    19    45    1
    44    20    21   ar
    45    20    46    1
    46    21    47    1
    47    22    26    1
    48    22    48    1
    49    23    25   ar
    50    23    49    1
    51    24    25   ar
    52    24    50    1
    53    25    51    1
    54    26    52    1
    55    26    53    1
    56    26    54    1
@<TRIPOS>MOLECULE
165361473
 63 67 0 0 0
SMALL
GASTEIGER

@<TRIPOS>ATOM
      1 BR          8.2472   -0.8182    0.4292 Br      1  UNL1       -0.0461
      2 O           3.4276   -2.1905   -0.8458 O.3     1  UNL1       -0.4910
      3 O           6.6715    1.9396    0.6308 O.3     1  UNL1       -0.4902
      4 O          -3.8363    2.2168   -1.5259 O.2     1  UNL1       -0.2753
      5 N          -0.0755    0.4042    0.1994 N.3     1  UNL1       -0.3019
      6 N          -4.2895    0.2968   -0.2094 N.am    1  UNL1       -0.2683
      7 C          -2.9543   -0.1072    0.1539 C.3     1  UNL1        0.0334
      8 C          -2.0789   -0.2719   -1.0882 C.3     1  UNL1       -0.0210
      9 C          -2.3203    0.8941    1.1199 C.3     1  UNL1       -0.0210
     10 C          -0.6360   -0.6100   -0.7040 C.3     1  UNL1        0.0006
     11 C          -0.8698    0.5158    1.4307 C.3     1  UNL1        0.0006
     12 C           1.3182    0.0932    0.5161 C.3     1  UNL1        0.0030
     13 C           2.2500    0.5021   -0.6356 C.3     1  UNL1       -0.0110
     14 C           3.6725    0.1835   -0.3503 C.ar    1  UNL1        0.0026
     15 C           4.5787    1.1547    0.0391 C.ar    1  UNL1        0.0053
     16 C           4.1732   -1.1017   -0.4651 C.ar    1  UNL1        0.1285
     17 C           5.5151   -1.4100   -0.2298 C.ar    1  UNL1        0.0152
     18 C           4.3820    2.6134    0.1939 C.3     1  UNL1        0.0105
     19 C           5.9197    0.8456    0.2787 C.ar    1  UNL1        0.1384
     20 C          -5.3860   -0.6037    0.1429 C.ar    1  UNL1        0.0366
     21 C           5.7411   -2.8442   -0.5172 C.3     1  UNL1        0.0113
     22 C          -4.5886    1.5625   -0.7994 C.2     1  UNL1        0.2198
     23 C           6.4257   -0.4352    0.1398 C.ar    1  UNL1        0.0665
     24 C           5.6838    2.9575    0.9185 C.3     1  UNL1        0.0937
     25 C           4.2872   -3.3165   -0.5505 C.3     1  UNL1        0.0937
     26 C          -5.9915    2.0899   -0.5125 C.3     1  UNL1        0.0217
     27 C          -6.2587   -1.0602   -0.8447 C.ar    1  UNL1       -0.0403
     28 C          -5.5598   -1.0057    1.4673 C.ar    1  UNL1       -0.0403
     29 C          -6.0577    3.6095   -0.4935 C.3     1  UNL1       -0.0570
     30 C          -7.3052   -1.9189   -0.5081 C.ar    1  UNL1       -0.0600
     31 C          -6.6062   -1.8643    1.8039 C.ar    1  UNL1       -0.0600
     32 C          -7.4790   -2.3208    0.8162 C.ar    1  UNL1       -0.0616
     33 H          -2.9927   -1.0853    0.6527 H       1  UNL1        0.0505
     34 H          -2.0635    0.6364   -1.6997 H       1  UNL1        0.0296
     35 H          -2.4837   -1.0664   -1.7275 H       1  UNL1        0.0296
     36 H          -2.8951    0.9356    2.0530 H       1  UNL1        0.0296
     37 H          -2.3373    1.9088    0.7021 H       1  UNL1        0.0296
     38 H          -0.0599   -0.6718   -1.6330 H       1  UNL1        0.0427
     39 H          -0.6071   -1.6053   -0.2407 H       1  UNL1        0.0427
     40 H          -0.4507    1.2970    2.0767 H       1  UNL1        0.0427
     41 H          -0.8458   -0.4242    1.9977 H       1  UNL1        0.0427
     42 H           1.4420   -0.9654    0.7803 H       1  UNL1        0.0430
     43 H           1.6359    0.6636    1.4002 H       1  UNL1        0.0430
     44 H           1.9738   -0.0016   -1.5695 H       1  UNL1        0.0327
     45 H           2.1264    1.5723   -0.8444 H       1  UNL1        0.0327
     46 H           4.3382    3.0968   -0.7873 H       1  UNL1        0.0347
     47 H           3.5074    2.8875    0.7894 H       1  UNL1        0.0347
     48 H           6.2156   -2.9653   -1.4964 H       1  UNL1        0.0348
     49 H           6.3140   -3.3738    0.2480 H       1  UNL1        0.0348
     50 H           6.0703    3.9342    0.6096 H       1  UNL1        0.0700
     51 H           5.5364    2.9809    2.0060 H       1  UNL1        0.0700
     52 H           4.1342   -4.0958   -1.3043 H       1  UNL1        0.0700
     53 H           3.9813   -3.7228    0.4223 H       1  UNL1        0.0700
     54 H          -6.3407    1.7409    0.4641 H       1  UNL1        0.0356
     55 H          -6.6696    1.7109   -1.2840 H       1  UNL1        0.0356
     56 H          -6.1295   -0.7630   -1.8822 H       1  UNL1        0.0636
     57 H          -4.8959   -0.6525    2.2516 H       1  UNL1        0.0636
     58 H          -5.7929    4.0279   -1.4701 H       1  UNL1        0.0234
     59 H          -7.0689    3.9447   -0.2431 H       1  UNL1        0.0234
     60 H          -5.3635    4.0210    0.2466 H       1  UNL1        0.0234
     61 H          -7.9835   -2.2760   -1.2775 H       1  UNL1        0.0618
     62 H          -6.7430   -2.1757    2.8353 H       1  UNL1        0.0618
     63 H          -8.2939   -2.9893    1.0783 H       1  UNL1        0.0618
@<TRIPOS>BOND
     1     1    23    1
     2     2    16    1
     3     2    25    1
     4     3    19    1
     5     3    24    1
     6     4    22    2
     7     5    10    1
     8     5    11    1
     9     5    12    1
    10     6     7    1
    11     6    20    1
    12     6    22   am
    13     7     8    1
    14     7     9    1
    15     7    33    1
    16     8    10    1
    17     8    34    1
    18     8    35    1
    19     9    11    1
    20     9    36    1
    21     9    37    1
    22    10    38    1
    23    10    39    1
    24    11    40    1
    25    11    41    1
    26    12    13    1
    27    12    42    1
    28    12    43    1
    29    13    14    1
    30    13    44    1
    31    13    45    1
    32    14    15   ar
    33    14    16   ar
    34    15    18    1
    35    15    19   ar
    36    16    17   ar
    37    17    21    1
    38    17    23   ar
    39    18    24    1
    40    18    46    1
    41    18    47    1
    42    19    23   ar
    43    20    27   ar
    44    20    28   ar
    45    21    25    1
    46    21    48    1
    47    21    49    1
    48    22    26    1
    49    24    50    1
    50    24    51    1
    51    25    52    1
    52    25    53    1
    53    26    29    1
    54    26    54    1
    55    26    55    1
    56    27    30   ar
    57    27    56    1
    58    28    31   ar
    59    28    57    1
    60    29    58    1
    61    29    59    1
    62    29    60    1
    63    30    32   ar
    64    30    61    1
    65    31    32   ar
    66    31    62    1
    67    32    63    1
@<TRIPOS>MOLECULE
621150
 56 58 0 0 0
SMALL
GASTEIGER

@<TRIPOS>ATOM
      1 O          -3.4245   -2.9184    0.3102 O.2     1  UNL1       -0.2753
      2 N           1.4866   -0.6598   -0.3302 N.3     1  UNL1       -0.3019
      3 N          -2.7209   -0.6608    0.1456 N.am    1  UNL1       -0.2680
      4 C          -1.3260   -0.8600    0.4507 C.3     1  UNL1        0.0334
      5 C          -0.6842   -1.8278   -0.5430 C.3     1  UNL1       -0.0210
      6 C          -0.5690    0.4684    0.4579 C.3     1  UNL1       -0.0210
      7 C           0.8181   -1.9678   -0.2908 C.3     1  UNL1        0.0006
      8 C           0.9292    0.2521    0.6783 C.3     1  UNL1        0.0006
      9 C           2.9281   -0.8163   -0.1374 C.3     1  UNL1        0.0029
     10 C          -3.1866    0.6965   -0.1305 C.ar    1  UNL1        0.0395
     11 C           3.6517    0.5201   -0.3075 C.3     1  UNL1       -0.0149
     12 C          -3.6683   -1.7273    0.1007 C.2     1  UNL1        0.2198
     13 C          -3.6266    1.4586    0.9105 C.ar    1  UNL1       -0.0290
     14 C          -5.0852   -1.3141   -0.2872 C.3     1  UNL1        0.0217
     15 C           5.1419    0.3687   -0.1334 C.ar    1  UNL1       -0.0462
     16 C          -3.1465    1.1080   -1.4313 C.ar    1  UNL1       -0.0400
     17 C          -4.0671    2.7514    0.6264 C.ar    1  UNL1       -0.0571
     18 C          -3.6590    0.9809    2.3261 C.3     1  UNL1       -0.0379
     19 C          -3.5868    2.4006   -1.7152 C.ar    1  UNL1       -0.0600
     20 C          -6.0566   -2.4846   -0.3053 C.3     1  UNL1       -0.0570
     21 C           5.6982    0.5136    1.1287 C.ar    1  UNL1       -0.0585
     22 C           5.9315    0.0866   -1.2379 C.ar    1  UNL1       -0.0585
     23 C          -4.0471    3.2223   -0.6864 C.ar    1  UNL1       -0.0614
     24 C           7.0766    0.3733    1.2900 C.ar    1  UNL1       -0.0615
     25 C           7.3100   -0.0538   -1.0765 C.ar    1  UNL1       -0.0615
     26 C           7.8824    0.0895    0.1875 C.ar    1  UNL1       -0.0617
     27 H          -1.2803   -1.3123    1.4503 H       1  UNL1        0.0505
     28 H          -1.1337   -2.8240   -0.4820 H       1  UNL1        0.0296
     29 H          -0.8507   -1.4766   -1.5704 H       1  UNL1        0.0296
     30 H          -0.6675    1.0004   -0.4962 H       1  UNL1        0.0296
     31 H          -0.9210    1.1359    1.2507 H       1  UNL1        0.0296
     32 H           0.9846   -2.4636    0.6747 H       1  UNL1        0.0427
     33 H           1.2335   -2.6208   -1.0681 H       1  UNL1        0.0427
     34 H           1.3716    1.2498    0.6196 H       1  UNL1        0.0427
     35 H           1.1034   -0.1288    1.6932 H       1  UNL1        0.0427
     36 H           3.1489   -1.2461    0.8492 H       1  UNL1        0.0430
     37 H           3.3200   -1.5214   -0.8824 H       1  UNL1        0.0430
     38 H           3.4387    0.9470   -1.2967 H       1  UNL1        0.0326
     39 H           3.3314    1.2726    0.4199 H       1  UNL1        0.0326
     40 H          -5.0718   -0.8749   -1.2895 H       1  UNL1        0.0356
     41 H          -5.4679   -0.5769    0.4235 H       1  UNL1        0.0356
     42 H          -2.7887    0.4696   -2.2324 H       1  UNL1        0.0636
     43 H          -4.4290    3.4053    1.4154 H       1  UNL1        0.0621
     44 H          -2.6614    0.7022    2.6764 H       1  UNL1        0.0278
     45 H          -4.0289    1.7573    3.0051 H       1  UNL1        0.0278
     46 H          -4.3269    0.1203    2.4310 H       1  UNL1        0.0278
     47 H          -3.5712    2.7673   -2.7374 H       1  UNL1        0.0618
     48 H          -5.7415   -3.2470   -1.0253 H       1  UNL1        0.0234
     49 H          -6.1207   -2.9576    0.6802 H       1  UNL1        0.0234
     50 H          -7.0580   -2.1438   -0.5864 H       1  UNL1        0.0234
     51 H           5.0793    0.7317    1.9944 H       1  UNL1        0.0620
     52 H           5.4949   -0.0288   -2.2259 H       1  UNL1        0.0620
     53 H          -4.3898    4.2288   -0.9078 H       1  UNL1        0.0618
     54 H           7.5223    0.4841    2.2743 H       1  UNL1        0.0618
     55 H           7.9376   -0.2753   -1.9348 H       1  UNL1        0.0618
     56 H           8.9556   -0.0202    0.3131 H       1  UNL1        0.0618
@<TRIPOS>BOND
     1     1    12    2
     2     2     7    1
     3     2     8    1
     4     2     9    1
     5     3     4    1
     6     3    10    1
     7     3    12   am
     8     4     5    1
     9     4     6    1
    10     4    27    1
    11     5     7    1
    12     5    28    1
    13     5    29    1
    14     6     8    1
    15     6    30    1
    16     6    31    1
    17     7    32    1
    18     7    33    1
    19     8    34    1
    20     8    35    1
    21     9    11    1
    22     9    36    1
    23     9    37    1
    24    10    13   ar
    25    10    16   ar
    26    11    15    1
    27    11    38    1
    28    11    39    1
    29    12    14    1
    30    13    17   ar
    31    13    18    1
    32    14    20    1
    33    14    40    1
    34    14    41    1
    35    15    21   ar
    36    15    22   ar
    37    16    19   ar
    38    16    42    1
    39    17    23   ar
    40    17    43    1
    41    18    44    1
    42    18    45    1
    43    18    46    1
    44    19    23   ar
    45    19    47    1
    46    20    48    1
    47    20    49    1
    48    20    50    1
    49    21    24   ar
    50    21    51    1
    51    22    25   ar
    52    22    52    1
    53    23    53    1
    54    24    26   ar
    55    24    54    1
    56    25    26   ar
    57    25    55    1
    58    26    56    1
@<TRIPOS>MOLECULE
62296
 53 55 0 0 0
SMALL
GASTEIGER

@<TRIPOS>ATOM
      1 S           6.2365   -0.3082    1.6123 S.2     1  UNL1       -0.1016
      2 O          -3.4001   -2.8369    0.5029 O.2     1  UNL1       -0.2753
      3 N           1.6270   -0.1403   -0.4140 N.3     1  UNL1       -0.3016
      4 N          -2.5379   -0.6534    0.1717 N.am    1  UNL1       -0.2680
      5 C          -1.1486   -1.0081   -0.0149 C.3     1  UNL1        0.0360
      6 C          -0.6196   -0.5804   -1.3997 C.3     1  UNL1       -0.0120
      7 C          -0.3043   -0.3751    1.0962 C.3     1  UNL1       -0.0208
      8 C           0.9011   -0.8154   -1.4979 C.3     1  UNL1        0.0032
      9 C           1.1868   -0.6333    0.8959 C.3     1  UNL1        0.0006
     10 C          -1.3213   -1.3270   -2.5399 C.3     1  UNL1       -0.0595
     11 C           3.0697   -0.3261   -0.5709 C.3     1  UNL1        0.0034
     12 C           3.8441    0.4718    0.4801 C.3     1  UNL1       -0.0086
     13 C          -2.9114    0.7581    0.1039 C.ar    1  UNL1        0.0366
     14 C          -3.5618   -1.6168    0.4190 C.2     1  UNL1        0.2198
     15 C          -4.9705   -1.0422    0.5398 C.3     1  UNL1        0.0217
     16 C           5.3339    0.3037    0.3107 C.ar    1  UNL1       -0.0090
     17 C          -2.8859    1.4744    1.2630 C.ar    1  UNL1       -0.0403
     18 C          -3.2608    1.2601   -1.1140 C.ar    1  UNL1       -0.0403
     19 C          -6.0201   -2.1075    0.8177 C.3     1  UNL1       -0.0570
     20 C          -3.2437    2.8211    1.1980 C.ar    1  UNL1       -0.0600
     21 C          -3.6185    2.6067   -1.1790 C.ar    1  UNL1       -0.0600
     22 C           6.0792    0.5893   -0.7899 C.ar    1  UNL1       -0.0515
     23 C          -3.6100    3.3873   -0.0230 C.ar    1  UNL1       -0.0616
     24 C           7.4555    0.2966   -0.5667 C.ar    1  UNL1       -0.0545
     25 C           7.6807   -0.1983    0.6990 C.ar    1  UNL1       -0.0241
     26 H          -1.0556   -2.0987    0.0702 H       1  UNL1        0.0508
     27 H          -0.7755    0.4942   -1.5519 H       1  UNL1        0.0329
     28 H          -0.4294    0.7126    1.1301 H       1  UNL1        0.0296
     29 H          -0.6177   -0.7624    2.0736 H       1  UNL1        0.0296
     30 H           1.1148   -1.8932   -1.4906 H       1  UNL1        0.0430
     31 H           1.2465   -0.4264   -2.4646 H       1  UNL1        0.0430
     32 H           1.3987   -1.7045    1.0093 H       1  UNL1        0.0427
     33 H           1.6741   -0.1117    1.7229 H       1  UNL1        0.0427
     34 H          -2.4088   -1.2413   -2.4984 H       1  UNL1        0.0233
     35 H          -0.9927   -0.9404   -3.5106 H       1  UNL1        0.0233
     36 H          -1.0816   -2.3960   -2.5097 H       1  UNL1        0.0233
     37 H           3.3669    0.0205   -1.5690 H       1  UNL1        0.0430
     38 H           3.3401   -1.3894   -0.5121 H       1  UNL1        0.0430
     39 H           3.6031    1.5395    0.3923 H       1  UNL1        0.0331
     40 H           3.5861    0.1721    1.4993 H       1  UNL1        0.0331
     41 H          -5.0027   -0.3207    1.3617 H       1  UNL1        0.0356
     42 H          -5.2395   -0.5403   -0.3947 H       1  UNL1        0.0356
     43 H          -2.6177    1.0347    2.2178 H       1  UNL1        0.0636
     44 H          -3.2993    0.6651   -2.0167 H       1  UNL1        0.0636
     45 H          -6.0524   -2.8482    0.0117 H       1  UNL1        0.0234
     46 H          -5.8063   -2.6360    1.7527 H       1  UNL1        0.0234
     47 H          -7.0117   -1.6521    0.9019 H       1  UNL1        0.0234
     48 H          -3.2412    3.4277    2.0989 H       1  UNL1        0.0618
     49 H          -3.9100    3.0462   -2.1286 H       1  UNL1        0.0618
     50 H           5.6835    0.9905   -1.7139 H       1  UNL1        0.0626
     51 H          -3.8909    4.4352   -0.0732 H       1  UNL1        0.0618
     52 H           8.2408    0.4425   -1.2969 H       1  UNL1        0.0623
     53 H           8.6243   -0.5001    1.1311 H       1  UNL1        0.0693
@<TRIPOS>BOND
     1     1    16   ar
     2     1    25   ar
     3     2    14    2
     4     3     8    1
     5     3     9    1
     6     3    11    1
     7     4     5    1
     8     4    13    1
     9     4    14   am
    10     5     6    1
    11     5     7    1
    12     5    26    1
    13     6     8    1
    14     6    10    1
    15     6    27    1
    16     7     9    1
    17     7    28    1
    18     7    29    1
    19     8    30    1
    20     8    31    1
    21     9    32    1
    22     9    33    1
    23    10    34    1
    24    10    35    1
    25    10    36    1
    26    11    12    1
    27    11    37    1
    28    11    38    1
    29    12    16    1
    30    12    39    1
    31    12    40    1
    32    13    17   ar
    33    13    18   ar
    34    14    15    1
    35    15    19    1
    36    15    41    1
    37    15    42    1
    38    16    22   ar
    39    17    20   ar
    40    17    43    1
    41    18    21   ar
    42    18    44    1
    43    19    45    1
    44    19    46    1
    45    19    47    1
    46    20    23   ar
    47    20    48    1
    48    21    23   ar
    49    21    49    1
    50    22    24   ar
    51    22    50    1
    52    23    51    1
    53    24    25   ar
    54    24    52    1
    55    25    53    1
@<TRIPOS>MOLECULE
527012
 57 59 0 0 0
SMALL
GASTEIGER

@<TRIPOS>ATOM
      1 O          -3.0228    3.6180   -0.2313 O.2     1  UNL1       -0.2753
      2 O          -4.4860   -3.8068    0.2336 O.3     1  UNL1       -0.4951
      3 N           1.6685    0.3637    0.4839 N.3     1  UNL1       -0.3019
      4 N          -2.4251    1.3369    0.0103 N.am    1  UNL1       -0.2683
      5 C          -0.9993    1.5123    0.1313 C.3     1  UNL1        0.0334
      6 C          -0.5013    1.0055    1.4846 C.3     1  UNL1       -0.0210
      7 C          -0.2591    0.8028   -1.0029 C.3     1  UNL1       -0.0210
      8 C           1.0227    1.0929    1.5841 C.3     1  UNL1        0.0006
      9 C           1.2568    0.8982   -0.8215 C.3     1  UNL1        0.0006
     10 C           3.1240    0.4146    0.6215 C.3     1  UNL1        0.0029
     11 C           3.8052   -0.4495   -0.4404 C.3     1  UNL1       -0.0149
     12 C          -2.9677   -0.0186    0.0687 C.ar    1  UNL1        0.0368
     13 C          -3.3316    2.4255   -0.1639 C.2     1  UNL1        0.2198
     14 C           5.3059   -0.4236   -0.2957 C.ar    1  UNL1       -0.0462
     15 C          -4.8051    2.0332   -0.2232 C.3     1  UNL1        0.0217
     16 C          -3.3168   -0.5061    1.2929 C.ar    1  UNL1       -0.0368
     17 C          -3.0885   -0.7017   -1.1043 C.ar    1  UNL1       -0.0368
     18 C          -5.7256    3.2274   -0.4245 C.3     1  UNL1       -0.0570
     19 C           6.0385    0.5415   -0.9703 C.ar    1  UNL1       -0.0585
     20 C           5.9288   -1.3649    0.5099 C.ar    1  UNL1       -0.0585
     21 C          -3.8360   -1.7996    1.3491 C.ar    1  UNL1       -0.0182
     22 C          -3.6078   -1.9951   -1.0481 C.ar    1  UNL1       -0.0182
     23 C          -3.9815   -2.5442    0.1786 C.ar    1  UNL1        0.1202
     24 C           7.4267    0.5658   -0.8364 C.ar    1  UNL1       -0.0615
     25 C           7.3171   -1.3405    0.6438 C.ar    1  UNL1       -0.0615
     26 C           8.0659   -0.3751   -0.0293 C.ar    1  UNL1       -0.0617
     27 C          -4.6059   -4.5128   -1.0006 C.3     1  UNL1        0.0788
     28 H          -0.7760    2.5849    0.0655 H       1  UNL1        0.0505
     29 H          -0.7695   -0.0441    1.6486 H       1  UNL1        0.0296
     30 H          -0.9584    1.5824    2.2977 H       1  UNL1        0.0296
     31 H          -0.5449    1.2354   -1.9695 H       1  UNL1        0.0296
     32 H          -0.5089   -0.2632   -1.0448 H       1  UNL1        0.0296
     33 H           1.3307    2.1468    1.5889 H       1  UNL1        0.0427
     34 H           1.3264    0.6614    2.5457 H       1  UNL1        0.0427
     35 H           1.5792    1.9410   -0.9404 H       1  UNL1        0.0427
     36 H           1.6775    0.3260   -1.6521 H       1  UNL1        0.0427
     37 H           3.4889    1.4492    0.5623 H       1  UNL1        0.0430
     38 H           3.4087    0.0371    1.6125 H       1  UNL1        0.0430
     39 H           3.4475   -1.4859   -0.3769 H       1  UNL1        0.0326
     40 H           3.5882   -0.1187   -1.4609 H       1  UNL1        0.0326
     41 H          -4.9673    1.3436   -1.0570 H       1  UNL1        0.0356
     42 H          -5.0890    1.5434    0.7133 H       1  UNL1        0.0356
     43 H          -3.2173    0.0743    2.2040 H       1  UNL1        0.0637
     44 H          -2.8109   -0.2726   -2.0613 H       1  UNL1        0.0637
     45 H          -5.6257    3.9445    0.3971 H       1  UNL1        0.0234
     46 H          -5.4934    3.7503   -1.3582 H       1  UNL1        0.0234
     47 H          -6.7692    2.9006   -0.4666 H       1  UNL1        0.0234
     48 H           5.5503    1.2806   -1.5992 H       1  UNL1        0.0620
     49 H           5.3542   -2.1193    1.0397 H       1  UNL1        0.0620
     50 H          -4.1277   -2.2207    2.3074 H       1  UNL1        0.0655
     51 H          -3.6963   -2.5162   -1.9953 H       1  UNL1        0.0655
     52 H           8.0098    1.3179   -1.3599 H       1  UNL1        0.0618
     53 H           7.8151   -2.0727    1.2728 H       1  UNL1        0.0618
     54 H           9.1468   -0.3560    0.0754 H       1  UNL1        0.0618
     55 H          -5.0228   -5.4986   -0.7699 H       1  UNL1        0.0660
     56 H          -5.3093   -4.0191   -1.6797 H       1  UNL1        0.0660
     57 H          -3.6282   -4.6799   -1.4652 H       1  UNL1        0.0660
@<TRIPOS>BOND
     1     1    13    2
     2     2    23    1
     3     2    27    1
     4     3     8    1
     5     3     9    1
     6     3    10    1
     7     4     5    1
     8     4    12    1
     9     4    13   am
    10     5     6    1
    11     5     7    1
    12     5    28    1
    13     6     8    1
    14     6    29    1
    15     6    30    1
    16     7     9    1
    17     7    31    1
    18     7    32    1
    19     8    33    1
    20     8    34    1
    21     9    35    1
    22     9    36    1
    23    10    11    1
    24    10    37    1
    25    10    38    1
    26    11    14    1
    27    11    39    1
    28    11    40    1
    29    12    16   ar
    30    12    17   ar
    31    13    15    1
    32    14    19   ar
    33    14    20   ar
    34    15    18    1
    35    15    41    1
    36    15    42    1
    37    16    21   ar
    38    16    43    1
    39    17    22   ar
    40    17    44    1
    41    18    45    1
    42    18    46    1
    43    18    47    1
    44    19    24   ar
    45    19    48    1
    46    20    25   ar
    47    20    49    1
    48    21    23   ar
    49    21    50    1
    50    22    23   ar
    51    22    51    1
    52    24    26   ar
    53    24    52    1
    54    25    26   ar
    55    25    53    1
    56    26    54    1
    57    27    55    1
    58    27    56    1
    59    27    57    1
@<TRIPOS>MOLECULE
23635044
 56 58 0 0 0
SMALL
GASTEIGER

@<TRIPOS>ATOM
      1 O          -3.0326   -2.5162   -0.2364 O.2     1  UNL1       -0.2752
      2 O          -7.9386   -2.1447    0.1447 O.3     1  UNL1       -0.4806
      3 O          -7.1765   -0.0227    0.4339 O.2     1  UNL1       -0.2510
      4 N           2.1690   -0.0483   -0.4986 N.3     1  UNL1       -0.3019
      5 N          -2.0388   -0.3662   -0.1478 N.am    1  UNL1       -0.2683
      6 C          -0.6614   -0.7632   -0.3016 C.3     1  UNL1        0.0334
      7 C           0.1667   -0.3622    0.9196 C.3     1  UNL1       -0.0210
      8 C          -0.0588   -0.1584   -1.5694 C.3     1  UNL1       -0.0210
      9 C           1.6475   -0.6878    0.7173 C.3     1  UNL1        0.0006
     10 C           1.4298   -0.4895   -1.6896 C.3     1  UNL1        0.0006
     11 C           3.5970   -0.3266   -0.6508 C.3     1  UNL1        0.0029
     12 C           4.3946    0.2455    0.5217 C.3     1  UNL1       -0.0149
     13 C          -2.3378    1.0563   -0.0050 C.ar    1  UNL1        0.0366
     14 C          -3.1221   -1.2888   -0.1281 C.2     1  UNL1        0.2205
     15 C          -4.5151   -0.7067    0.0724 C.3     1  UNL1        0.0345
     16 C           5.8716   -0.0151    0.3659 C.ar    1  UNL1       -0.0462
     17 C          -2.3616    1.5735    1.2563 C.ar    1  UNL1       -0.0403
     18 C          -2.5721    1.7704   -1.1426 C.ar    1  UNL1       -0.0403
     19 C          -5.5787   -1.7979    0.0734 C.3     1  UNL1        0.0530
     20 C           6.4166   -1.1784    0.8882 C.ar    1  UNL1       -0.0585
     21 C           6.6607    0.9125   -0.2975 C.ar    1  UNL1       -0.0585
     22 C          -2.6468    2.9320    1.3929 C.ar    1  UNL1       -0.0600
     23 C          -2.8572    3.1290   -1.0058 C.ar    1  UNL1       -0.0600
     24 C          -2.8946    3.7097    0.2619 C.ar    1  UNL1       -0.0616
     25 C           7.7829   -1.4198    0.7439 C.ar    1  UNL1       -0.0615
     26 C           8.0269    0.6710   -0.4418 C.ar    1  UNL1       -0.0615
     27 C          -6.9586   -1.2123    0.2442 C.2     1  UNL1        0.3052
     28 C           8.5879   -0.4952    0.0789 C.ar    1  UNL1       -0.0617
     29 H          -0.6258   -1.8563   -0.3942 H       1  UNL1        0.0505
     30 H           0.1016    0.7134    1.1180 H       1  UNL1        0.0296
     31 H          -0.2069   -0.8749    1.8145 H       1  UNL1        0.0296
     32 H          -0.5917   -0.5248   -2.4552 H       1  UNL1        0.0296
     33 H          -0.1408    0.9340   -1.5772 H       1  UNL1        0.0296
     34 H           1.7859   -1.7763    0.6808 H       1  UNL1        0.0427
     35 H           2.1434   -0.3222    1.6200 H       1  UNL1        0.0427
     36 H           1.8209    0.0183   -2.5799 H       1  UNL1        0.0427
     37 H           1.5545   -1.5686   -1.8498 H       1  UNL1        0.0427
     38 H           3.9606    0.1361   -1.5779 H       1  UNL1        0.0430
     39 H           3.7797   -1.4058   -0.7453 H       1  UNL1        0.0430
     40 H           4.2194    1.3259    0.6122 H       1  UNL1        0.0326
     41 H           4.1051   -0.1875    1.4843 H       1  UNL1        0.0326
     42 H          -4.5489   -0.1732    1.0283 H       1  UNL1        0.0364
     43 H          -4.7300    0.0012   -0.7354 H       1  UNL1        0.0364
     44 H          -2.1822    0.9694    2.1394 H       1  UNL1        0.0636
     45 H          -2.5576    1.3199   -2.1294 H       1  UNL1        0.0636
     46 H          -5.5582   -2.3460   -0.8755 H       1  UNL1        0.0382
     47 H          -5.4045   -2.5025    0.8944 H       1  UNL1        0.0382
     48 H           5.7980   -1.9064    1.4054 H       1  UNL1        0.0620
     49 H           6.2327    1.8226   -0.7081 H       1  UNL1        0.0620
     50 H          -2.6791    3.3835    2.3801 H       1  UNL1        0.0618
     51 H          -3.0535    3.7339   -1.8862 H       1  UNL1        0.0618
     52 H          -3.1181    4.7672    0.3683 H       1  UNL1        0.0618
     53 H           8.2197   -2.3282    1.1486 H       1  UNL1        0.0618
     54 H           8.6540    1.3907   -0.9601 H       1  UNL1        0.0618
     55 H           9.6516   -0.6832   -0.0339 H       1  UNL1        0.0618
     56 H          -8.8309   -1.7504    0.2484 H       1  UNL1        0.2951
@<TRIPOS>BOND
     1     1    14    2
     2     2    27    1
     3     2    56    1
     4     3    27    2
     5     4     9    1
     6     4    10    1
     7     4    11    1
     8     5     6    1
     9     5    13    1
    10     5    14   am
    11     6     7    1
    12     6     8    1
    13     6    29    1
    14     7     9    1
    15     7    30    1
    16     7    31    1
    17     8    10    1
    18     8    32    1
    19     8    33    1
    20     9    34    1
    21     9    35    1
    22    10    36    1
    23    10    37    1
    24    11    12    1
    25    11    38    1
    26    11    39    1
    27    12    16    1
    28    12    40    1
    29    12    41    1
    30    13    17   ar
    31    13    18   ar
    32    14    15    1
    33    15    19    1
    34    15    42    1
    35    15    43    1
    36    16    20   ar
    37    16    21   ar
    38    17    22   ar
    39    17    44    1
    40    18    23   ar
    41    18    45    1
    42    19    27    1
    43    19    46    1
    44    19    47    1
    45    20    25   ar
    46    20    48    1
    47    21    26   ar
    48    21    49    1
    49    22    24   ar
    50    22    50    1
    51    23    24   ar
    52    23    51    1
    53    24    52    1
    54    25    28   ar
    55    25    53    1
    56    26    28   ar
    57    26    54    1
    58    28    55    1
@<TRIPOS>MOLECULE
137700074
 58 61 0 0 0
SMALL
GASTEIGER

@<TRIPOS>ATOM
      1 O          -1.7252    2.0075    1.1940 O.2     1  UNL1       -0.2700
      2 N           2.1150    0.1045   -0.2343 N.3     1  UNL1       -0.3019
      3 N          -2.0922   -0.1151    0.1908 N.am    1  UNL1       -0.2646
      4 C          -0.7361   -0.5310   -0.0669 C.3     1  UNL1        0.0337
      5 C           0.1372   -0.3618    1.1766 C.3     1  UNL1       -0.0210
      6 C          -0.1411    0.2479   -1.2396 C.3     1  UNL1       -0.0210
      7 C           1.5984   -0.7032    0.8793 C.3     1  UNL1        0.0006
      8 C           1.3295   -0.1126   -1.4570 C.3     1  UNL1        0.0006
      9 C           3.5265   -0.1966   -0.4729 C.3     1  UNL1        0.0029
     10 C          -2.4237    1.2136    0.5638 C.2     1  UNL1        0.2468
     11 C           4.4225    0.5737    0.4975 C.3     1  UNL1       -0.0149
     12 C          -3.1689   -1.1012    0.0626 C.ar    1  UNL1        0.0369
     13 C          -3.7434    1.6708    0.1661 C.2     1  UNL1        0.0110
     14 C          -4.7843    2.1300    1.1243 C.3     1  UNL1       -0.0228
     15 C          -6.0345    2.1738    0.2433 C.3     1  UNL1       -0.0455
     16 C          -5.5393    2.2495   -1.2033 C.3     1  UNL1       -0.0338
     17 C          -4.1430    1.7304   -1.1062 C.2     1  UNL1       -0.0759
     18 C           5.8822    0.2892    0.2478 C.ar    1  UNL1       -0.0462
     19 C          -3.9724   -1.4032    1.1620 C.ar    1  UNL1       -0.0403
     20 C          -3.3900   -1.7376   -1.1587 C.ar    1  UNL1       -0.0403
     21 C          -4.9970   -2.3420    1.0402 C.ar    1  UNL1       -0.0600
     22 C          -4.4145   -2.6763   -1.2806 C.ar    1  UNL1       -0.0600
     23 C           6.5104   -0.7663    0.9090 C.ar    1  UNL1       -0.0585
     24 C           6.6042    1.0815   -0.6446 C.ar    1  UNL1       -0.0585
     25 C          -5.2180   -2.9785   -0.1811 C.ar    1  UNL1       -0.0616
     26 C           7.8607   -1.0291    0.6779 C.ar    1  UNL1       -0.0615
     27 C           7.9543    0.8186   -0.8758 C.ar    1  UNL1       -0.0615
     28 C           8.5826   -0.2367   -0.2144 C.ar    1  UNL1       -0.0617
     29 H          -0.7344   -1.5980   -0.3287 H       1  UNL1        0.0505
     30 H          -0.2339   -1.0066    1.9829 H       1  UNL1        0.0296
     31 H           0.1122    0.6606    1.5650 H       1  UNL1        0.0296
     32 H          -0.2182    1.3296   -1.0683 H       1  UNL1        0.0296
     33 H          -0.7073    0.0413   -2.1560 H       1  UNL1        0.0296
     34 H           2.1729   -0.5187    1.7936 H       1  UNL1        0.0427
     35 H           1.6824   -1.7755    0.6570 H       1  UNL1        0.0427
     36 H           1.4093   -1.1552   -1.7922 H       1  UNL1        0.0427
     37 H           1.7134    0.5207   -2.2663 H       1  UNL1        0.0427
     38 H           3.8072    0.1173   -1.4881 H       1  UNL1        0.0430
     39 H           3.7233   -1.2763   -0.4298 H       1  UNL1        0.0430
     40 H           4.1925    0.3238    1.5402 H       1  UNL1        0.0326
     41 H           4.2420    1.6530    0.4049 H       1  UNL1        0.0326
     42 H          -4.9194    1.4479    1.9682 H       1  UNL1        0.0315
     43 H          -4.5384    3.1256    1.5088 H       1  UNL1        0.0315
     44 H          -6.6898    3.0128    0.4986 H       1  UNL1        0.0271
     45 H          -6.6171    1.2539    0.3851 H       1  UNL1        0.0271
     46 H          -5.5374    3.2791   -1.5752 H       1  UNL1        0.0308
     47 H          -6.1573    1.6336   -1.8631 H       1  UNL1        0.0308
     48 H          -3.5418    1.4714   -1.9661 H       1  UNL1        0.0576
     49 H          -3.8046   -0.9232    2.1226 H       1  UNL1        0.0636
     50 H          -2.7762   -1.5086   -2.0256 H       1  UNL1        0.0636
     51 H          -5.6213   -2.5786    1.8968 H       1  UNL1        0.0618
     52 H          -4.5877   -3.1708   -2.2319 H       1  UNL1        0.0618
     53 H           5.9578   -1.3919    1.6049 H       1  UNL1        0.0620
     54 H           6.1254    1.9054   -1.1672 H       1  UNL1        0.0620
     55 H          -6.0157   -3.7093   -0.2760 H       1  UNL1        0.0618
     56 H           8.3498   -1.8511    1.1923 H       1  UNL1        0.0618
     57 H           8.5165    1.4353   -1.5710 H       1  UNL1        0.0618
     58 H           9.6339   -0.4414   -0.3946 H       1  UNL1        0.0618
@<TRIPOS>BOND
     1     1    10    2
     2     2     7    1
     3     2     8    1
     4     2     9    1
     5     3     4    1
     6     3    10   am
     7     3    12    1
     8     4     5    1
     9     4     6    1
    10     4    29    1
    11     5     7    1
    12     5    30    1
    13     5    31    1
    14     6     8    1
    15     6    32    1
    16     6    33    1
    17     7    34    1
    18     7    35    1
    19     8    36    1
    20     8    37    1
    21     9    11    1
    22     9    38    1
    23     9    39    1
    24    10    13    1
    25    11    18    1
    26    11    40    1
    27    11    41    1
    28    12    19   ar
    29    12    20   ar
    30    13    14    1
    31    13    17    2
    32    14    15    1
    33    14    42    1
    34    14    43    1
    35    15    16    1
    36    15    44    1
    37    15    45    1
    38    16    17    1
    39    16    46    1
    40    16    47    1
    41    17    48    1
    42    18    23   ar
    43    18    24   ar
    44    19    21   ar
    45    19    49    1
    46    20    22   ar
    47    20    50    1
    48    21    25   ar
    49    21    51    1
    50    22    25   ar
    51    22    52    1
    52    23    26   ar
    53    23    53    1
    54    24    27   ar
    55    24    54    1
    56    25    55    1
    57    26    28   ar
    58    26    56    1
    59    27    28   ar
    60    27    57    1
    61    28    58    1
@<TRIPOS>MOLECULE
608913
 48 50 0 0 0
SMALL
GASTEIGER

@<TRIPOS>ATOM
      1 N           0.9338   -0.8015   -0.2063 N.3     1  UNL1       -0.3016
      2 N          -3.2793   -0.8774   -0.4251 N.pl3   1  UNL1       -0.3406
      3 C          -1.1932   -2.0411    0.1869 C.3     1  UNL1       -0.0127
      4 C          -1.9729   -0.7109    0.1826 C.3     1  UNL1        0.0255
      5 C           0.2676   -1.8131    0.6250 C.3     1  UNL1        0.0032
      6 C          -1.2026    0.3569   -0.6019 C.3     1  UNL1       -0.0215
      7 C           0.2391    0.4876   -0.1173 C.3     1  UNL1        0.0006
      8 C           2.3346   -0.6553    0.1897 C.3     1  UNL1        0.0029
      9 C          -1.8390   -3.0834    1.1076 C.3     1  UNL1       -0.0596
     10 C           3.0707    0.3050   -0.7452 C.3     1  UNL1       -0.0149
     11 C          -4.3323   -0.0025   -0.2266 C.ar    1  UNL1        0.0273
     12 C           4.5220    0.4475   -0.3613 C.ar    1  UNL1       -0.0462
     13 C          -5.5791   -0.2164   -0.8464 C.ar    1  UNL1       -0.0408
     14 C          -4.1884    1.1283    0.6011 C.ar    1  UNL1       -0.0408
     15 C           4.8947    1.4348    0.5384 C.ar    1  UNL1       -0.0585
     16 C           5.4602   -0.4114   -0.9138 C.ar    1  UNL1       -0.0585
     17 C          -6.6405    0.6663   -0.6465 C.ar    1  UNL1       -0.0600
     18 C          -5.2499    2.0108    0.8009 C.ar    1  UNL1       -0.0600
     19 C          -6.4759    1.7797    0.1771 C.ar    1  UNL1       -0.0616
     20 C           6.2370    1.5665    0.8938 C.ar    1  UNL1       -0.0615
     21 C           6.8026   -0.2797   -0.5583 C.ar    1  UNL1       -0.0615
     22 C           7.1909    0.7093    0.3455 C.ar    1  UNL1       -0.0617
     23 H          -1.1864   -2.4554   -0.8315 H       1  UNL1        0.0328
     24 H          -2.0675   -0.4018    1.2318 H       1  UNL1        0.0501
     25 H           0.2999   -1.5234    1.6845 H       1  UNL1        0.0430
     26 H           0.8047   -2.7662    0.5360 H       1  UNL1        0.0430
     27 H          -1.6854    1.3374   -0.5323 H       1  UNL1        0.0295
     28 H          -1.2008    0.0999   -1.6709 H       1  UNL1        0.0295
     29 H           0.6864    1.2438   -0.7670 H       1  UNL1        0.0427
     30 H           0.2550    0.8793    0.9082 H       1  UNL1        0.0427
     31 H           2.4157   -0.3109    1.2298 H       1  UNL1        0.0430
     32 H           2.8296   -1.6343    0.1431 H       1  UNL1        0.0430
     33 H          -2.8584   -3.3174    0.7847 H       1  UNL1        0.0233
     34 H          -1.2670   -4.0173    1.0974 H       1  UNL1        0.0233
     35 H          -1.8851   -2.7259    2.1419 H       1  UNL1        0.0233
     36 H          -3.4120   -1.6314   -1.0904 H       1  UNL1        0.1464
     37 H           2.6499    1.3152   -0.7356 H       1  UNL1        0.0326
     38 H           2.9977   -0.0422   -1.7844 H       1  UNL1        0.0326
     39 H          -5.7252   -1.0798   -1.4918 H       1  UNL1        0.0636
     40 H          -3.2638    1.3565    1.1217 H       1  UNL1        0.0636
     41 H           4.1594    2.1058    0.9735 H       1  UNL1        0.0620
     42 H           5.1673   -1.1859   -1.6169 H       1  UNL1        0.0620
     43 H          -7.5952    0.4865   -1.1320 H       1  UNL1        0.0618
     44 H          -5.1235    2.8770    1.4441 H       1  UNL1        0.0618
     45 H          -7.3026    2.4666    0.3332 H       1  UNL1        0.0618
     46 H           6.5395    2.3360    1.5981 H       1  UNL1        0.0618
     47 H           7.5454   -0.9476   -0.9847 H       1  UNL1        0.0618
     48 H           8.2360    0.8115    0.6226 H       1  UNL1        0.0618
@<TRIPOS>BOND
     1     1     5    1
     2     1     7    1
     3     1     8    1
     4     2     4    1
     5     2    11    1
     6     2    36    1
     7     3     4    1
     8     3     5    1
     9     3     9    1
    10     3    23    1
    11     4     6    1
    12     4    24    1
    13     5    25    1
    14     5    26    1
    15     6     7    1
    16     6    27    1
    17     6    28    1
    18     7    29    1
    19     7    30    1
    20     8    10    1
    21     8    31    1
    22     8    32    1
    23     9    33    1
    24     9    34    1
    25     9    35    1
    26    10    12    1
    27    10    37    1
    28    10    38    1
    29    11    13   ar
    30    11    14   ar
    31    12    15   ar
    32    12    16   ar
    33    13    17   ar
    34    13    39    1
    35    14    18   ar
    36    14    40    1
    37    15    20   ar
    38    15    41    1
    39    16    21   ar
    40    16    42    1
    41    17    19   ar
    42    17    43    1
    43    18    19   ar
    44    18    44    1
    45    19    45    1
    46    20    22   ar
    47    20    46    1
    48    21    22   ar
    49    21    47    1
    50    22    48    1
@<TRIPOS>MOLECULE
45040238
 45 47 0 0 0
SMALL
GASTEIGER

@<TRIPOS>ATOM
      1 N          -0.7160   -1.1778    0.0961 N.3     1  UNL1       -0.3019
      2 N           2.8010   -0.5271   -0.6819 N.pl3   1  UNL1       -0.3409
      3 C           2.2037   -1.5130    0.1984 C.3     1  UNL1        0.0230
      4 C           1.2919   -2.4482   -0.5986 C.3     1  UNL1       -0.0217
      5 C           1.4126   -0.8185    1.3086 C.3     1  UNL1       -0.0217
      6 C          -0.0010   -1.7596   -1.0474 C.3     1  UNL1        0.0006
      7 C           0.1150   -0.1876    0.7934 C.3     1  UNL1        0.0006
      8 C          -1.9746   -0.5735   -0.3407 C.3     1  UNL1        0.0029
      9 C          -2.9585   -0.4549    0.8236 C.3     1  UNL1       -0.0149
     10 C           3.9543    0.1699   -0.3750 C.ar    1  UNL1        0.0273
     11 C          -4.2688    0.1466    0.3820 C.ar    1  UNL1       -0.0462
     12 C           4.4659    1.1031   -1.2767 C.ar    1  UNL1       -0.0408
     13 C           4.6068   -0.0599    0.8361 C.ar    1  UNL1       -0.0408
     14 C          -4.4505    1.5291    0.4237 C.ar    1  UNL1       -0.0585
     15 C          -5.2990   -0.6788   -0.0681 C.ar    1  UNL1       -0.0585
     16 C           5.6301    1.8065   -0.9672 C.ar    1  UNL1       -0.0600
     17 C           5.7708    0.6435    1.1457 C.ar    1  UNL1       -0.0600
     18 C          -5.6625    2.0859    0.0152 C.ar    1  UNL1       -0.0615
     19 C          -6.5109   -0.1222   -0.4765 C.ar    1  UNL1       -0.0615
     20 C           6.2825    1.5766    0.2440 C.ar    1  UNL1       -0.0616
     21 C          -6.6927    1.2602   -0.4349 C.ar    1  UNL1       -0.0617
     22 H           2.9804   -2.1539    0.6324 H       1  UNL1        0.0498
     23 H           1.8187   -2.8398   -1.4775 H       1  UNL1        0.0295
     24 H           1.0327   -3.3129    0.0267 H       1  UNL1        0.0295
     25 H           1.1587   -1.5629    2.0753 H       1  UNL1        0.0295
     26 H           2.0021   -0.0464    1.8143 H       1  UNL1        0.0295
     27 H           0.2157   -0.9952   -1.8044 H       1  UNL1        0.0427
     28 H          -0.6292   -2.5186   -1.5301 H       1  UNL1        0.0427
     29 H          -0.4101    0.2201    1.6635 H       1  UNL1        0.0427
     30 H           0.3515    0.6597    0.1364 H       1  UNL1        0.0427
     31 H          -1.8084    0.3989   -0.8238 H       1  UNL1        0.0430
     32 H          -2.4467   -1.2111   -1.1011 H       1  UNL1        0.0430
     33 H           2.3263   -0.2920   -1.5462 H       1  UNL1        0.1463
     34 H          -2.5548    0.1609    1.6356 H       1  UNL1        0.0326
     35 H          -3.1434   -1.4432    1.2655 H       1  UNL1        0.0326
     36 H           3.9676    1.2922   -2.2242 H       1  UNL1        0.0636
     37 H           4.2586   -0.7723    1.5762 H       1  UNL1        0.0636
     38 H          -3.6546    2.1828    0.7704 H       1  UNL1        0.0620
     39 H          -5.1688   -1.7571   -0.1069 H       1  UNL1        0.0620
     40 H           6.0285    2.5331   -1.6692 H       1  UNL1        0.0618
     41 H           6.2797    0.4651    2.0886 H       1  UNL1        0.0618
     42 H          -5.8039    3.1622    0.0471 H       1  UNL1        0.0618
     43 H          -7.3130   -0.7650   -0.8275 H       1  UNL1        0.0618
     44 H           7.1890    2.1242    0.4850 H       1  UNL1        0.0618
     45 H          -7.6363    1.6936   -0.7532 H       1  UNL1        0.0618
@<TRIPOS>BOND
     1     1     6    1
     2     1     7    1
     3     1     8    1
     4     2     3    1
     5     2    10    1
     6     2    33    1
     7     3     4    1
     8     3     5    1
     9     3    22    1
    10     4     6    1
    11     4    23    1
    12     4    24    1
    13     5     7    1
    14     5    25    1
    15     5    26    1
    16     6    27    1
    17     6    28    1
    18     7    29    1
    19     7    30    1
    20     8     9    1
    21     8    31    1
    22     8    32    1
    23     9    11    1
    24     9    34    1
    25     9    35    1
    26    10    12   ar
    27    10    13   ar
    28    11    14   ar
    29    11    15   ar
    30    12    16   ar
    31    12    36    1
    32    13    17   ar
    33    13    37    1
    34    14    18   ar
    35    14    38    1
    36    15    19   ar
    37    15    39    1
    38    16    20   ar
    39    16    40    1
    40    17    20   ar
    41    17    41    1
    42    18    21   ar
    43    18    42    1
    44    19    21   ar
    45    19    43    1
    46    20    44    1
    47    21    45    1
@<TRIPOS>MOLECULE
137699900
 60 62 0 0 0
SMALL
GASTEIGER

@<TRIPOS>ATOM
      1 O          -1.4283    2.8253   -0.9322 O.2     1  UNL1       -0.2752
      2 O          -6.6680   -2.5961    0.0386 O.3     1  UNL1       -0.4951
      3 N           2.1134    0.0814   -0.4863 N.3     1  UNL1       -0.3019
      4 N          -2.0863    0.6141   -0.3945 N.am    1  UNL1       -0.2683
      5 C          -0.8073   -0.0510   -0.3748 C.3     1  UNL1        0.0334
      6 C           0.0352    0.4112    0.8144 C.3     1  UNL1       -0.0210
      7 C          -0.0504    0.1854   -1.6815 C.3     1  UNL1       -0.0210
      8 C           1.4313   -0.2132    0.7815 C.3     1  UNL1        0.0006
      9 C           1.3490   -0.4304   -1.6321 C.3     1  UNL1        0.0006
     10 C           3.4649   -0.4783   -0.4821 C.3     1  UNL1        0.0029
     11 C           4.4378    0.4448    0.2523 C.3     1  UNL1       -0.0149
     12 C          -3.2790   -0.2211   -0.2813 C.ar    1  UNL1        0.0368
     13 C          -2.2247    2.0336   -0.4215 C.2     1  UNL1        0.2200
     14 C          -3.5071    2.5692    0.2112 C.3     1  UNL1        0.0242
     15 C           5.8399   -0.1101    0.2450 C.ar    1  UNL1       -0.0462
     16 C          -3.4232   -1.0880    0.8019 C.ar    1  UNL1       -0.0368
     17 C          -4.2739   -0.1523   -1.2567 C.ar    1  UNL1       -0.0368
     18 C          -3.3289    3.9615    0.8183 C.3     1  UNL1       -0.0476
     19 C          -4.5620   -1.8859    0.9098 C.ar    1  UNL1       -0.0182
     20 C          -5.4128   -0.9502   -1.1488 C.ar    1  UNL1       -0.0182
     21 C           6.2630   -0.9508    1.2745 C.ar    1  UNL1       -0.0585
     22 C           6.7138    0.2174   -0.7916 C.ar    1  UNL1       -0.0585
     23 C          -5.5570   -1.8171   -0.0654 C.ar    1  UNL1        0.1202
     24 C          -2.2927    3.9562    1.9305 C.3     1  UNL1       -0.0648
     25 C           7.5601   -1.4638    1.2675 C.ar    1  UNL1       -0.0615
     26 C           8.0108   -0.2956   -0.7987 C.ar    1  UNL1       -0.0615
     27 C           8.4340   -1.1362    0.2309 C.ar    1  UNL1       -0.0617
     28 C          -6.7515   -3.4599    1.1714 C.3     1  UNL1        0.0788
     29 H          -0.9604   -1.1350   -0.2836 H       1  UNL1        0.0505
     30 H          -0.4623    0.1454    1.7550 H       1  UNL1        0.0296
     31 H           0.1403    1.5035    0.8207 H       1  UNL1        0.0296
     32 H           0.0577    1.2524   -1.9025 H       1  UNL1        0.0296
     33 H          -0.6108   -0.2460   -2.5203 H       1  UNL1        0.0296
     34 H           1.3482   -1.2968    0.9391 H       1  UNL1        0.0427
     35 H           1.9934    0.1933    1.6292 H       1  UNL1        0.0427
     36 H           1.8608   -0.1756   -2.5683 H       1  UNL1        0.0427
     37 H           1.2704   -1.5249   -1.5910 H       1  UNL1        0.0427
     38 H           3.4817   -1.4936   -0.0634 H       1  UNL1        0.0430
     39 H           3.8305   -0.5753   -1.5140 H       1  UNL1        0.0430
     40 H           4.1317    0.6036    1.2932 H       1  UNL1        0.0326
     41 H           4.4389    1.4404   -0.2112 H       1  UNL1        0.0326
     42 H          -3.8600    1.9014    1.0034 H       1  UNL1        0.0358
     43 H          -4.2756    2.6183   -0.5678 H       1  UNL1        0.0358
     44 H          -2.6627   -1.1471    1.5758 H       1  UNL1        0.0637
     45 H          -4.1704    0.5116   -2.1110 H       1  UNL1        0.0637
     46 H          -3.0304    4.6805    0.0468 H       1  UNL1        0.0267
     47 H          -4.2899    4.3014    1.2211 H       1  UNL1        0.0267
     48 H          -4.6109   -2.5351    1.7773 H       1  UNL1        0.0655
     49 H          -6.1834   -0.8938   -1.9128 H       1  UNL1        0.0655
     50 H           5.5905   -1.2149    2.0864 H       1  UNL1        0.0620
     51 H           6.3953    0.8699   -1.6002 H       1  UNL1        0.0620
     52 H          -2.5536    3.2305    2.7077 H       1  UNL1        0.0230
     53 H          -2.2430    4.9449    2.3982 H       1  UNL1        0.0230
     54 H          -1.2915    3.7177    1.5604 H       1  UNL1        0.0230
     55 H           7.8895   -2.1188    2.0688 H       1  UNL1        0.0618
     56 H           8.6912   -0.0411   -1.6061 H       1  UNL1        0.0618
     57 H           9.4439   -1.5358    0.2253 H       1  UNL1        0.0618
     58 H          -7.6982   -4.0045    1.0935 H       1  UNL1        0.0660
     59 H          -6.7848   -2.8930    2.1080 H       1  UNL1        0.0660
     60 H          -5.9512   -4.2077    1.1669 H       1  UNL1        0.0660
@<TRIPOS>BOND
     1     1    13    2
     2     2    23    1
     3     2    28    1
     4     3     8    1
     5     3     9    1
     6     3    10    1
     7     4     5    1
     8     4    12    1
     9     4    13   am
    10     5     6    1
    11     5     7    1
    12     5    29    1
    13     6     8    1
    14     6    30    1
    15     6    31    1
    16     7     9    1
    17     7    32    1
    18     7    33    1
    19     8    34    1
    20     8    35    1
    21     9    36    1
    22     9    37    1
    23    10    11    1
    24    10    38    1
    25    10    39    1
    26    11    15    1
    27    11    40    1
    28    11    41    1
    29    12    16   ar
    30    12    17   ar
    31    13    14    1
    32    14    18    1
    33    14    42    1
    34    14    43    1
    35    15    21   ar
    36    15    22   ar
    37    16    19   ar
    38    16    44    1
    39    17    20   ar
    40    17    45    1
    41    18    24    1
    42    18    46    1
    43    18    47    1
    44    19    23   ar
    45    19    48    1
    46    20    23   ar
    47    20    49    1
    48    21    25   ar
    49    21    50    1
    50    22    26   ar
    51    22    51    1
    52    24    52    1
    53    24    53    1
    54    24    54    1
    55    25    27   ar
    56    25    55    1
    57    26    27   ar
    58    26    56    1
    59    27    57    1
    60    28    58    1
    61    28    59    1
    62    28    60    1
@<TRIPOS>MOLECULE
137700508
 58 61 0 0 0
SMALL
GASTEIGER

@<TRIPOS>ATOM
      1 S          -3.6103   -2.5786   -1.7169 S.3     1  UNL1       -0.1480
      2 O          -1.9898   -1.9605    0.7781 O.2     1  UNL1       -0.2740
      3 N           1.9937    0.1173    0.4217 N.3     1  UNL1       -0.3019
      4 N          -2.2298    0.3322    0.2083 N.am    1  UNL1       -0.2674
      5 C          -0.8535    0.7614    0.2243 C.3     1  UNL1        0.0334
      6 C          -0.1876    0.4054    1.5532 C.3     1  UNL1       -0.0210
      7 C          -0.0724    0.1488   -0.9384 C.3     1  UNL1       -0.0210
      8 C           1.2993    0.7647    1.5433 C.3     1  UNL1        0.0006
      9 C           1.4105    0.5176   -0.8663 C.3     1  UNL1        0.0006
     10 C           3.4223    0.4300    0.4556 C.3     1  UNL1        0.0029
     11 C          -3.9154   -1.3600   -0.4085 C.3     1  UNL1        0.0819
     12 C          -2.6093   -1.0383    0.2418 C.2     1  UNL1        0.2330
     13 C          -4.8931   -2.0211    0.5536 C.3     1  UNL1       -0.0320
     14 C          -3.2547    1.3620    0.0582 C.ar    1  UNL1        0.0366
     15 C           4.2375   -0.6557   -0.2475 C.3     1  UNL1       -0.0149
     16 C          -4.5970   -3.5161    0.5524 C.3     1  UNL1       -0.0425
     17 C          -4.4905   -3.9378   -0.9018 C.3     1  UNL1       -0.0056
     18 C          -4.2698    1.4791    1.0076 C.ar    1  UNL1       -0.0403
     19 C          -3.2185    2.2279   -1.0346 C.ar    1  UNL1       -0.0403
     20 C           5.7148   -0.3565   -0.2006 C.ar    1  UNL1       -0.0462
     21 C          -5.2489    2.4623    0.8642 C.ar    1  UNL1       -0.0600
     22 C          -4.1975    3.2111   -1.1781 C.ar    1  UNL1       -0.0600
     23 C           6.3085    0.3884   -1.2195 C.ar    1  UNL1       -0.0585
     24 C           6.4875   -0.8249    0.8620 C.ar    1  UNL1       -0.0585
     25 C          -5.2127    3.3282   -0.2287 C.ar    1  UNL1       -0.0616
     26 C           7.6751    0.6649   -1.1758 C.ar    1  UNL1       -0.0615
     27 C           7.8539   -0.5484    0.9058 C.ar    1  UNL1       -0.0615
     28 C           8.4477    0.1965   -0.1133 C.ar    1  UNL1       -0.0617
     29 H          -0.8112    1.8547    0.1253 H       1  UNL1        0.0505
     30 H          -0.6867    0.9353    2.3741 H       1  UNL1        0.0296
     31 H          -0.2754   -0.6621    1.7802 H       1  UNL1        0.0296
     32 H          -0.1617   -0.9451   -0.9391 H       1  UNL1        0.0296
     33 H          -0.4882    0.4911   -1.8938 H       1  UNL1        0.0296
     34 H           1.4162    1.8555    1.4970 H       1  UNL1        0.0427
     35 H           1.7314    0.4309    2.4947 H       1  UNL1        0.0427
     36 H           1.9159    0.0119   -1.6961 H       1  UNL1        0.0427
     37 H           1.5243    1.5977   -1.0291 H       1  UNL1        0.0427
     38 H           3.7698    0.4691    1.4976 H       1  UNL1        0.0430
     39 H           3.6297    1.4232    0.0349 H       1  UNL1        0.0430
     40 H          -4.3907   -0.5120   -0.8990 H       1  UNL1        0.0507
     41 H          -5.9230   -1.8522    0.2126 H       1  UNL1        0.0281
     42 H          -4.8200   -1.6148    1.5680 H       1  UNL1        0.0281
     43 H           3.9379   -0.7662   -1.2966 H       1  UNL1        0.0326
     44 H           4.0499   -1.6324    0.2184 H       1  UNL1        0.0326
     45 H          -3.6705   -3.7415    1.0919 H       1  UNL1        0.0274
     46 H          -5.3946   -4.0716    1.0576 H       1  UNL1        0.0274
     47 H          -3.9512   -4.8819   -1.0163 H       1  UNL1        0.0376
     48 H          -5.4809   -4.0402   -1.3561 H       1  UNL1        0.0376
     49 H          -4.3030    0.8208    1.8714 H       1  UNL1        0.0636
     50 H          -2.4410    2.1452   -1.7890 H       1  UNL1        0.0636
     51 H          -6.0377    2.5553    1.6049 H       1  UNL1        0.0618
     52 H          -4.1707    3.8840   -2.0301 H       1  UNL1        0.0618
     53 H           5.7165    0.7606   -2.0514 H       1  UNL1        0.0620
     54 H           6.0360   -1.4047    1.6627 H       1  UNL1        0.0620
     55 H          -5.9749    4.0938   -0.3404 H       1  UNL1        0.0618
     56 H           8.1374    1.2454   -1.9688 H       1  UNL1        0.0618
     57 H           8.4555   -0.9126    1.7334 H       1  UNL1        0.0618
     58 H           9.5117    0.4119   -0.0791 H       1  UNL1        0.0618
@<TRIPOS>BOND
     1     1    11    1
     2     1    17    1
     3     2    12    2
     4     3     8    1
     5     3     9    1
     6     3    10    1
     7     4     5    1
     8     4    12   am
     9     4    14    1
    10     5     6    1
    11     5     7    1
    12     5    29    1
    13     6     8    1
    14     6    30    1
    15     6    31    1
    16     7     9    1
    17     7    32    1
    18     7    33    1
    19     8    34    1
    20     8    35    1
    21     9    36    1
    22     9    37    1
    23    10    15    1
    24    10    38    1
    25    10    39    1
    26    11    12    1
    27    11    13    1
    28    11    40    1
    29    13    16    1
    30    13    41    1
    31    13    42    1
    32    14    18   ar
    33    14    19   ar
    34    15    20    1
    35    15    43    1
    36    15    44    1
    37    16    17    1
    38    16    45    1
    39    16    46    1
    40    17    47    1
    41    17    48    1
    42    18    21   ar
    43    18    49    1
    44    19    22   ar
    45    19    50    1
    46    20    23   ar
    47    20    24   ar
    48    21    25   ar
    49    21    51    1
    50    22    25   ar
    51    22    52    1
    52    23    26   ar
    53    23    53    1
    54    24    27   ar
    55    24    54    1
    56    25    55    1
    57    26    28   ar
    58    26    56    1
    59    27    28   ar
    60    27    57    1
    61    28    58    1
@<TRIPOS>MOLECULE
146167150
 53 55 0 0 0
SMALL
GASTEIGER

@<TRIPOS>ATOM
      1 F           3.2834    1.8830    0.0157 F       1  UNL1       -0.2390
      2 F           4.6250   -1.5177    1.8000 F       1  UNL1       -0.2051
      3 O          -2.6333    2.6713   -0.2999 O.2     1  UNL1       -0.2753
      4 N           1.1492    0.2139   -0.5446 N.3     1  UNL1       -0.2991
      5 N          -3.0655    0.3442   -0.1503 N.am    1  UNL1       -0.2683
      6 C          -1.7376   -0.1919   -0.3154 C.3     1  UNL1        0.0334
      7 C          -0.8613    0.1263    0.8964 C.3     1  UNL1       -0.0210
      8 C          -1.0900    0.3430   -1.5924 C.3     1  UNL1       -0.0210
      9 C           0.5742   -0.3597    0.6801 C.3     1  UNL1        0.0007
     10 C           0.3537   -0.1490   -1.7254 C.3     1  UNL1        0.0007
     11 C           2.5367   -0.2188   -0.7096 C.3     1  UNL1        0.0343
     12 C           3.4475    0.5464    0.2519 C.3     1  UNL1        0.1412
     13 C          -4.1784   -0.6038   -0.1335 C.ar    1  UNL1        0.0366
     14 C          -3.3240    1.7276    0.0924 C.2     1  UNL1        0.2198
     15 C           4.8863    0.1164    0.0979 C.ar    1  UNL1        0.0225
     16 C          -4.6036    2.0150    0.8727 C.3     1  UNL1        0.0217
     17 C          -5.2374   -0.4525   -1.0285 C.ar    1  UNL1       -0.0403
     18 C          -4.1812   -1.6594    0.7784 C.ar    1  UNL1       -0.0403
     19 C          -4.5117    3.2819    1.7097 C.3     1  UNL1       -0.0570
     20 C           5.4009   -0.9075    0.8933 C.ar    1  UNL1        0.1293
     21 C           5.7020    0.7460   -0.8422 C.ar    1  UNL1       -0.0531
     22 C          -6.2993   -1.3568   -1.0118 C.ar    1  UNL1       -0.0600
     23 C          -5.2431   -2.5637    0.7951 C.ar    1  UNL1       -0.0600
     24 C          -6.3022   -2.4123   -0.0999 C.ar    1  UNL1       -0.0616
     25 C           6.7309   -1.3017    0.7485 C.ar    1  UNL1       -0.0261
     26 C           7.0321    0.3519   -0.9870 C.ar    1  UNL1       -0.0612
     27 C           7.5467   -0.6720   -0.1916 C.ar    1  UNL1       -0.0590
     28 H          -1.7959   -1.2842   -0.4172 H       1  UNL1        0.0505
     29 H          -1.2754   -0.3453    1.7959 H       1  UNL1        0.0296
     30 H          -0.8413    1.2054    1.0955 H       1  UNL1        0.0296
     31 H          -1.6684    0.0222   -2.4677 H       1  UNL1        0.0296
     32 H          -1.0789    1.4377   -1.6160 H       1  UNL1        0.0296
     33 H           1.1443   -0.0642    1.5660 H       1  UNL1        0.0427
     34 H           0.5852   -1.4571    0.6405 H       1  UNL1        0.0427
     35 H           0.3608   -1.2359   -1.8818 H       1  UNL1        0.0427
     36 H           0.7842    0.3115   -2.6231 H       1  UNL1        0.0427
     37 H           2.8672    0.0177   -1.7302 H       1  UNL1        0.0458
     38 H           2.6416   -1.3050   -0.5880 H       1  UNL1        0.0458
     39 H           3.1631    0.3953    1.2974 H       1  UNL1        0.0716
     40 H          -4.8282    1.1924    1.5584 H       1  UNL1        0.0356
     41 H          -5.4296    2.1144    0.1609 H       1  UNL1        0.0356
     42 H          -5.2437    0.3595   -1.7509 H       1  UNL1        0.0636
     43 H          -3.3698   -1.7874    1.4896 H       1  UNL1        0.0636
     44 H          -4.3630    4.1628    1.0766 H       1  UNL1        0.0234
     45 H          -5.4317    3.4277    2.2843 H       1  UNL1        0.0234
     46 H          -3.6716    3.2268    2.4098 H       1  UNL1        0.0234
     47 H           5.3131    1.5432   -1.4700 H       1  UNL1        0.0622
     48 H          -7.1229   -1.2403   -1.7101 H       1  UNL1        0.0618
     49 H          -5.2465   -3.3843    1.5065 H       1  UNL1        0.0618
     50 H          -7.1291   -3.1164   -0.0868 H       1  UNL1        0.0618
     51 H           7.1313   -2.0988    1.3680 H       1  UNL1        0.0646
     52 H           7.6672    0.8416   -1.7194 H       1  UNL1        0.0618
     53 H           8.5823   -0.9790   -0.3044 H       1  UNL1        0.0618
@<TRIPOS>BOND
     1     1    12    1
     2     2    20    1
     3     3    14    2
     4     4     9    1
     5     4    10    1
     6     4    11    1
     7     5     6    1
     8     5    13    1
     9     5    14   am
    10     6     7    1
    11     6     8    1
    12     6    28    1
    13     7     9    1
    14     7    29    1
    15     7    30    1
    16     8    10    1
    17     8    31    1
    18     8    32    1
    19     9    33    1
    20     9    34    1
    21    10    35    1
    22    10    36    1
    23    11    12    1
    24    11    37    1
    25    11    38    1
    26    12    15    1
    27    12    39    1
    28    13    17   ar
    29    13    18   ar
    30    14    16    1
    31    15    20   ar
    32    15    21   ar
    33    16    19    1
    34    16    40    1
    35    16    41    1
    36    17    22   ar
    37    17    42    1
    38    18    23   ar
    39    18    43    1
    40    19    44    1
    41    19    45    1
    42    19    46    1
    43    20    25   ar
    44    21    26   ar
    45    21    47    1
    46    22    24   ar
    47    22    48    1
    48    23    24   ar
    49    23    49    1
    50    24    50    1
    51    25    27   ar
    52    25    51    1
    53    26    27   ar
    54    26    52    1
    55    27    53    1
@<TRIPOS>MOLECULE
165361468
 61 63 0 0 0
SMALL
GASTEIGER

@<TRIPOS>ATOM
      1 BR          8.4931   -0.8417    0.3828 Br      1  UNL1       -0.0464
      2 O          -3.5151    2.2224   -1.5648 O.2     1  UNL1       -0.2753
      3 O           3.6163   -2.1805   -0.8975 O.3     1  UNL1       -0.4948
      4 O           7.0422    1.9189    0.4719 O.3     1  UNL1       -0.4940
      5 N           0.2583    0.4133    0.1365 N.3     1  UNL1       -0.3019
      6 N          -3.9631    0.3383   -0.1958 N.am    1  UNL1       -0.2683
      7 C          -2.6256   -0.0704    0.1534 C.3     1  UNL1        0.0334
      8 C          -1.7740   -0.2727   -1.0996 C.3     1  UNL1       -0.0210
      9 C          -1.9650    0.9469    1.0844 C.3     1  UNL1       -0.0210
     10 C          -0.3278   -0.6161   -0.7329 C.3     1  UNL1        0.0006
     11 C          -0.5129    0.5615    1.3785 C.3     1  UNL1        0.0006
     12 C           1.6544    0.0959    0.4359 C.3     1  UNL1        0.0030
     13 C           2.5477    0.4732   -0.7454 C.3     1  UNL1       -0.0113
     14 C          -5.0618   -0.5428    0.1968 C.ar    1  UNL1        0.0366
     15 C          -4.2606    1.5928   -0.8101 C.2     1  UNL1        0.2198
     16 C           3.9944    0.1477   -0.4713 C.ar    1  UNL1       -0.0010
     17 C          -5.6531    2.1406   -0.5111 C.3     1  UNL1        0.0217
     18 C          -5.9559   -1.0133   -0.7647 C.ar    1  UNL1       -0.0403
     19 C          -5.2158   -0.9128    1.5329 C.ar    1  UNL1       -0.0403
     20 C           4.4592   -1.1644   -0.5607 C.ar    1  UNL1        0.1246
     21 C           4.8706    1.1759   -0.1241 C.ar    1  UNL1       -0.0122
     22 C          -5.7045    3.6609   -0.5267 C.3     1  UNL1       -0.0570
     23 C          -7.0041   -1.8540   -0.3902 C.ar    1  UNL1       -0.0600
     24 C          -6.2639   -1.7536    1.9073 C.ar    1  UNL1       -0.0600
     25 C          -7.1581   -2.2241    0.9458 C.ar    1  UNL1       -0.0616
     26 C           6.2117    0.8921    0.1336 C.ar    1  UNL1        0.1345
     27 C           5.8002   -1.4482   -0.3030 C.ar    1  UNL1       -0.0022
     28 C           6.6766   -0.4200    0.0442 C.ar    1  UNL1        0.0629
     29 C           4.1758   -3.4907   -0.9657 C.3     1  UNL1        0.0788
     30 C           7.1609    2.2249    1.8596 C.3     1  UNL1        0.0788
     31 H          -2.6645   -1.0361    0.6757 H       1  UNL1        0.0505
     32 H          -1.7608    0.6208   -1.7325 H       1  UNL1        0.0296
     33 H          -2.1977   -1.0779   -1.7127 H       1  UNL1        0.0296
     34 H          -2.5227    1.0158    2.0261 H       1  UNL1        0.0296
     35 H          -1.9799    1.9516    0.6432 H       1  UNL1        0.0296
     36 H          -0.3004   -1.6004   -0.2465 H       1  UNL1        0.0427
     37 H           0.2299   -0.7066   -1.6706 H       1  UNL1        0.0427
     38 H          -0.4879   -0.3652    1.9669 H       1  UNL1        0.0427
     39 H          -0.0749    1.3533    1.9986 H       1  UNL1        0.0427
     40 H           1.9949    0.6842    1.2995 H       1  UNL1        0.0430
     41 H           1.7726   -0.9569    0.7231 H       1  UNL1        0.0430
     42 H           2.2555   -0.0417   -1.6678 H       1  UNL1        0.0327
     43 H           2.4423    1.5445   -0.9636 H       1  UNL1        0.0327
     44 H          -5.9882    1.8179    0.4794 H       1  UNL1        0.0356
     45 H          -6.3484    1.7505   -1.2615 H       1  UNL1        0.0356
     46 H          -5.8422   -0.7412   -1.8108 H       1  UNL1        0.0636
     47 H          -4.5349   -0.5483    2.2971 H       1  UNL1        0.0636
     48 H           4.5147    2.2008   -0.0505 H       1  UNL1        0.0658
     49 H          -5.4531    4.0537   -1.5174 H       1  UNL1        0.0234
     50 H          -6.7078    4.0119   -0.2666 H       1  UNL1        0.0234
     51 H          -4.9933    4.0825    0.1912 H       1  UNL1        0.0234
     52 H          -7.6991   -2.2222   -1.1391 H       1  UNL1        0.0618
     53 H          -6.3852   -2.0401    2.9479 H       1  UNL1        0.0618
     54 H          -7.9742   -2.8786    1.2374 H       1  UNL1        0.0618
     55 H           6.2151   -2.4492   -0.3581 H       1  UNL1        0.0666
     56 H           3.3652   -4.1714   -1.2463 H       1  UNL1        0.0660
     57 H           4.9370   -3.5653   -1.7498 H       1  UNL1        0.0660
     58 H           4.5448   -3.8241    0.0102 H       1  UNL1        0.0660
     59 H           7.9570    2.9647    1.9800 H       1  UNL1        0.0660
     60 H           7.4175    1.3367    2.4450 H       1  UNL1        0.0660
     61 H           6.2253    2.6557    2.2301 H       1  UNL1        0.0660
@<TRIPOS>BOND
     1     1    28    1
     2     2    15    2
     3     3    20    1
     4     3    29    1
     5     4    26    1
     6     4    30    1
     7     5    10    1
     8     5    11    1
     9     5    12    1
    10     6     7    1
    11     6    14    1
    12     6    15   am
    13     7     8    1
    14     7     9    1
    15     7    31    1
    16     8    10    1
    17     8    32    1
    18     8    33    1
    19     9    11    1
    20     9    34    1
    21     9    35    1
    22    10    36    1
    23    10    37    1
    24    11    38    1
    25    11    39    1
    26    12    13    1
    27    12    40    1
    28    12    41    1
    29    13    16    1
    30    13    42    1
    31    13    43    1
    32    14    18   ar
    33    14    19   ar
    34    15    17    1
    35    16    20   ar
    36    16    21   ar
    37    17    22    1
    38    17    44    1
    39    17    45    1
    40    18    23   ar
    41    18    46    1
    42    19    24   ar
    43    19    47    1
    44    20    27   ar
    45    21    26   ar
    46    21    48    1
    47    22    49    1
    48    22    50    1
    49    22    51    1
    50    23    25   ar
    51    23    52    1
    52    24    25   ar
    53    24    53    1
    54    25    54    1
    55    26    28   ar
    56    27    28   ar
    57    27    55    1
    58    29    56    1
    59    29    57    1
    60    29    58    1
    61    30    59    1
    62    30    60    1
    63    30    61    1
@<TRIPOS>MOLECULE
527010
 56 58 0 0 0
SMALL
GASTEIGER

@<TRIPOS>ATOM
      1 CL         -4.1299   -4.7661   -0.2300 Cl      1  UNL1       -0.0835
      2 O          -3.1960    3.1098    0.0398 O.2     1  UNL1       -0.2752
      3 N           1.7533    0.2087    0.4884 N.3     1  UNL1       -0.3019
      4 N          -2.4074    0.8748    0.0710 N.am    1  UNL1       -0.2683
      5 C          -1.0016    1.1572    0.2211 C.3     1  UNL1        0.0334
      6 C          -0.4642    0.5682    1.5251 C.3     1  UNL1       -0.0210
      7 C          -0.2028    0.6229   -0.9681 C.3     1  UNL1       -0.0210
      8 C           1.0468    0.7736    1.6464 C.3     1  UNL1        0.0006
      9 C           1.2994    0.8278   -0.7647 C.3     1  UNL1        0.0006
     10 C           3.1991    0.3685    0.6435 C.3     1  UNL1        0.0029
     11 C           3.9521   -0.3309   -0.4888 C.3     1  UNL1       -0.0149
     12 C          -2.8331   -0.5211   -0.0035 C.ar    1  UNL1        0.0366
     13 C          -3.4030    1.8946   -0.0082 C.2     1  UNL1        0.2200
     14 C          -4.8387    1.3862   -0.1179 C.3     1  UNL1        0.0242
     15 C           5.4452   -0.1927   -0.3286 C.ar    1  UNL1       -0.0462
     16 C          -3.1404   -1.1506    1.1659 C.ar    1  UNL1       -0.0389
     17 C          -2.8941   -1.0975   -1.2369 C.ar    1  UNL1       -0.0389
     18 C          -5.8620    2.5200   -0.1996 C.3     1  UNL1       -0.0476
     19 C           6.0943    0.8900   -0.9025 C.ar    1  UNL1       -0.0585
     20 C           6.1445   -1.1503    0.3905 C.ar    1  UNL1       -0.0585
     21 C          -3.5472   -2.4829    1.0949 C.ar    1  UNL1       -0.0416
     22 C          -3.3010   -2.4297   -1.3080 C.ar    1  UNL1       -0.0416
     23 C          -7.2777    1.9841   -0.3391 C.3     1  UNL1       -0.0648
     24 C          -3.6275   -3.1226   -0.1422 C.ar    1  UNL1        0.0411
     25 C           7.4754    1.0181   -0.7542 C.ar    1  UNL1       -0.0615
     26 C           7.5256   -1.0221    0.5389 C.ar    1  UNL1       -0.0615
     27 C           8.1909    0.0621   -0.0334 C.ar    1  UNL1       -0.0617
     28 H          -0.8698    2.2461    0.2587 H       1  UNL1        0.0505
     29 H          -0.9695    1.0250    2.3847 H       1  UNL1        0.0296
     30 H          -0.6427   -0.5109    1.5871 H       1  UNL1        0.0296
     31 H          -0.3614   -0.4516   -1.1125 H       1  UNL1        0.0296
     32 H          -0.5230    1.1195   -1.8922 H       1  UNL1        0.0296
     33 H           1.3848    0.2801    2.5659 H       1  UNL1        0.0427
     34 H           1.2647    1.8445    1.7532 H       1  UNL1        0.0427
     35 H           1.5327    1.9005   -0.7818 H       1  UNL1        0.0427
     36 H           1.7679    0.3742   -1.6415 H       1  UNL1        0.0427
     37 H           3.4753    1.4310    0.6854 H       1  UNL1        0.0430
     38 H           3.5135   -0.0758    1.5971 H       1  UNL1        0.0430
     39 H           3.7092    0.0756   -1.4755 H       1  UNL1        0.0326
     40 H           3.6834   -1.3950   -0.5265 H       1  UNL1        0.0326
     41 H          -5.0726    0.7759    0.7605 H       1  UNL1        0.0358
     42 H          -4.9345    0.7736   -1.0202 H       1  UNL1        0.0358
     43 H          -3.0916   -0.6528    2.1287 H       1  UNL1        0.0637
     44 H          -2.6535   -0.5583   -2.1470 H       1  UNL1        0.0637
     45 H          -5.7991    3.1461    0.6985 H       1  UNL1        0.0267
     46 H          -5.6363    3.1673   -1.0555 H       1  UNL1        0.0267
     47 H           5.5461    1.6417   -1.4634 H       1  UNL1        0.0620
     48 H           5.6350   -1.9972    0.8416 H       1  UNL1        0.0620
     49 H          -3.8013   -3.0093    2.0115 H       1  UNL1        0.0633
     50 H          -3.3619   -2.9142   -2.2792 H       1  UNL1        0.0633
     51 H          -7.3824    1.3839   -1.2485 H       1  UNL1        0.0230
     52 H          -7.9923    2.8113   -0.3941 H       1  UNL1        0.0230
     53 H          -7.5469    1.3591    0.5183 H       1  UNL1        0.0230
     54 H           7.9934    1.8627   -1.1991 H       1  UNL1        0.0618
     55 H           8.0829   -1.7662    1.1005 H       1  UNL1        0.0618
     56 H           9.2661    0.1621    0.0825 H       1  UNL1        0.0618
@<TRIPOS>BOND
     1     1    24    1
     2     2    13    2
     3     3     8    1
     4     3     9    1
     5     3    10    1
     6     4     5    1
     7     4    12    1
     8     4    13   am
     9     5     6    1
    10     5     7    1
    11     5    28    1
    12     6     8    1
    13     6    29    1
    14     6    30    1
    15     7     9    1
    16     7    31    1
    17     7    32    1
    18     8    33    1
    19     8    34    1
    20     9    35    1
    21     9    36    1
    22    10    11    1
    23    10    37    1
    24    10    38    1
    25    11    15    1
    26    11    39    1
    27    11    40    1
    28    12    16   ar
    29    12    17   ar
    30    13    14    1
    31    14    18    1
    32    14    41    1
    33    14    42    1
    34    15    19   ar
    35    15    20   ar
    36    16    21   ar
    37    16    43    1
    38    17    22   ar
    39    17    44    1
    40    18    23    1
    41    18    45    1
    42    18    46    1
    43    19    25   ar
    44    19    47    1
    45    20    26   ar
    46    20    48    1
    47    21    24   ar
    48    21    49    1
    49    22    24   ar
    50    22    50    1
    51    23    51    1
    52    23    52    1
    53    23    53    1
    54    25    27   ar
    55    25    54    1
    56    26    27   ar
    57    26    55    1
    58    27    56    1
@<TRIPOS>MOLECULE
621847
 53 55 0 0 0
SMALL
GASTEIGER

@<TRIPOS>ATOM
      1 F          -3.7614    3.3248    1.8683 F       1  UNL1       -0.2054
      2 O          -3.4620   -3.1501    0.3465 O.2     1  UNL1       -0.2753
      3 N           1.4545   -0.2843   -0.5057 N.3     1  UNL1       -0.3019
      4 N          -2.7023   -0.9368   -0.0318 N.am    1  UNL1       -0.2682
      5 C          -1.2912   -1.2187   -0.1201 C.3     1  UNL1        0.0334
      6 C          -0.5146   -0.4903    0.9773 C.3     1  UNL1       -0.0210
      7 C          -0.7447   -0.8368   -1.4955 C.3     1  UNL1       -0.0210
      8 C           0.9925   -0.7028    0.8250 C.3     1  UNL1        0.0006
      9 C           0.7702   -1.0365   -1.5664 C.3     1  UNL1        0.0006
     10 C           2.9040   -0.4454   -0.6181 C.3     1  UNL1        0.0029
     11 C           3.6335    0.4362    0.3963 C.3     1  UNL1       -0.0149
     12 C          -3.1472    0.4466   -0.1850 C.ar    1  UNL1        0.0393
     13 C          -3.6851   -1.9459    0.1982 C.2     1  UNL1        0.2198
     14 C           5.1301    0.2964    0.2760 C.ar    1  UNL1       -0.0462
     15 C          -5.1278   -1.4488    0.2103 C.3     1  UNL1        0.0217
     16 C          -3.2329    1.2105    0.9406 C.ar    1  UNL1       -0.0050
     17 C          -3.4472    0.8778   -1.4428 C.ar    1  UNL1       -0.0401
     18 C          -6.1323   -2.5603    0.4740 C.3     1  UNL1       -0.0570
     19 C           5.7857   -0.6716    1.0219 C.ar    1  UNL1       -0.0585
     20 C           5.8262    1.1377   -0.5789 C.ar    1  UNL1       -0.0585
     21 C          -3.6588    2.5308    0.7945 C.ar    1  UNL1        0.1252
     22 C          -3.8732    2.1979   -1.5889 C.ar    1  UNL1       -0.0573
     23 C          -3.9789    3.0244   -0.4703 C.ar    1  UNL1       -0.0263
     24 C           7.1701   -0.8012    0.9105 C.ar    1  UNL1       -0.0615
     25 C           7.2106    1.0079   -0.6903 C.ar    1  UNL1       -0.0615
     26 C           7.8824    0.0384    0.0544 C.ar    1  UNL1       -0.0617
     27 H          -1.1449   -2.2977    0.0176 H       1  UNL1        0.0505
     28 H          -0.6891    0.5910    0.9472 H       1  UNL1        0.0296
     29 H          -0.8403   -0.8384    1.9653 H       1  UNL1        0.0296
     30 H          -1.2330   -1.4320   -2.2767 H       1  UNL1        0.0296
     31 H          -0.9363    0.2160   -1.7304 H       1  UNL1        0.0296
     32 H           1.2393   -1.7556    1.0152 H       1  UNL1        0.0427
     33 H           1.4439   -0.1086    1.6234 H       1  UNL1        0.0427
     34 H           1.1137   -0.6907   -2.5491 H       1  UNL1        0.0427
     35 H           1.0032   -2.1074   -1.4991 H       1  UNL1        0.0427
     36 H           3.1944   -1.4968   -0.4873 H       1  UNL1        0.0430
     37 H           3.2250   -0.1538   -1.6269 H       1  UNL1        0.0430
     38 H           3.3505    1.4888    0.2613 H       1  UNL1        0.0326
     39 H           3.3831    0.1884    1.4326 H       1  UNL1        0.0326
     40 H          -5.2496   -0.6969    0.9958 H       1  UNL1        0.0356
     41 H          -5.3666   -1.0021   -0.7597 H       1  UNL1        0.0356
     42 H          -2.9969    0.8270    1.9275 H       1  UNL1        0.0665
     43 H          -3.3788    0.2345   -2.3138 H       1  UNL1        0.0636
     44 H          -6.0748   -3.3343   -0.2985 H       1  UNL1        0.0234
     45 H          -5.9471   -3.0364    1.4426 H       1  UNL1        0.0234
     46 H          -7.1507   -2.1594    0.4795 H       1  UNL1        0.0234
     47 H           5.2401   -1.3325    1.6894 H       1  UNL1        0.0620
     48 H           5.3117    1.8943   -1.1644 H       1  UNL1        0.0620
     49 H          -4.1255    2.5814   -2.5732 H       1  UNL1        0.0619
     50 H          -4.3114    4.0520   -0.5836 H       1  UNL1        0.0646
     51 H           7.6932   -1.5566    1.4897 H       1  UNL1        0.0618
     52 H           7.7654    1.6613   -1.3573 H       1  UNL1        0.0618
     53 H           8.9602   -0.0628   -0.0328 H       1  UNL1        0.0618
@<TRIPOS>BOND
     1     1    21    1
     2     2    13    2
     3     3     8    1
     4     3     9    1
     5     3    10    1
     6     4     5    1
     7     4    12    1
     8     4    13   am
     9     5     6    1
    10     5     7    1
    11     5    27    1
    12     6     8    1
    13     6    28    1
    14     6    29    1
    15     7     9    1
    16     7    30    1
    17     7    31    1
    18     8    32    1
    19     8    33    1
    20     9    34    1
    21     9    35    1
    22    10    11    1
    23    10    36    1
    24    10    37    1
    25    11    14    1
    26    11    38    1
    27    11    39    1
    28    12    16   ar
    29    12    17   ar
    30    13    15    1
    31    14    19   ar
    32    14    20   ar
    33    15    18    1
    34    15    40    1
    35    15    41    1
    36    16    21   ar
    37    16    42    1
    38    17    22   ar
    39    17    43    1
    40    18    44    1
    41    18    45    1
    42    18    46    1
    43    19    24   ar
    44    19    47    1
    45    20    25   ar
    46    20    48    1
    47    21    23   ar
    48    22    23   ar
    49    22    49    1
    50    23    50    1
    51    24    26   ar
    52    24    51    1
    53    25    26   ar
    54    25    52    1
    55    26    53    1
@<TRIPOS>MOLECULE
129597874
 51 53 0 0 0
SMALL
GASTEIGER

@<TRIPOS>ATOM
      1 F          -6.9441   -2.7452    0.0337 F       1  UNL1       -0.2055
      2 O          -1.8069    2.7465    0.6652 O.2     1  UNL1       -0.2703
      3 N           1.7835    0.2163   -0.3114 N.3     1  UNL1       -0.3019
      4 N          -2.4249    0.5517    0.0150 N.am    1  UNL1       -0.2648
      5 C          -1.1241   -0.0533   -0.1281 C.3     1  UNL1        0.0337
      6 C          -0.4289    0.4434   -1.3954 C.3     1  UNL1       -0.0210
      7 C          -0.2509    0.2232    1.0961 C.3     1  UNL1       -0.0210
      8 C           0.9916   -0.1136   -1.5044 C.3     1  UNL1        0.0006
      9 C           1.1634   -0.3276    0.9048 C.3     1  UNL1        0.0006
     10 C           3.1524   -0.2794   -0.4531 C.3     1  UNL1        0.0029
     11 C           4.1218    0.5367    0.4025 C.3     1  UNL1       -0.0149
     12 C          -3.6086   -0.3114    0.0199 C.ar    1  UNL1        0.0370
     13 C          -2.6002    1.9576    0.1513 C.2     1  UNL1        0.2433
     14 C           5.5408    0.0499    0.2486 C.ar    1  UNL1       -0.0462
     15 C          -3.8897   -1.1158   -1.0844 C.ar    1  UNL1       -0.0375
     16 C          -4.4542   -0.3292    1.1291 C.ar    1  UNL1       -0.0375
     17 C          -3.8838    2.4830   -0.3998 C.2     1  UNL1       -0.0064
     18 C           6.0334   -0.9431    1.0953 C.ar    1  UNL1       -0.0585
     19 C           6.3605    0.5927   -0.7407 C.ar    1  UNL1       -0.0585
     20 C          -5.0162   -1.9382   -1.0795 C.ar    1  UNL1       -0.0247
     21 C          -5.5808   -1.1517    1.1341 C.ar    1  UNL1       -0.0247
     22 C          -5.8617   -1.9562    0.0297 C.ar    1  UNL1        0.1235
     23 C           7.3460   -1.3931    0.9528 C.ar    1  UNL1       -0.0615
     24 C           7.6730    0.1427   -0.8833 C.ar    1  UNL1       -0.0615
     25 C          -4.4571    3.5641    0.1384 C.2     1  UNL1       -0.0938
     26 C           8.1658   -0.8502   -0.0365 C.ar    1  UNL1       -0.0617
     27 H          -1.2448   -1.1423   -0.2084 H       1  UNL1        0.0505
     28 H          -1.0051    0.1505   -2.2814 H       1  UNL1        0.0296
     29 H          -0.3802    1.5401   -1.4093 H       1  UNL1        0.0296
     30 H          -0.1579    1.2918    1.3092 H       1  UNL1        0.0296
     31 H          -0.7040   -0.2299    1.9866 H       1  UNL1        0.0296
     32 H           0.9522   -1.2000   -1.6587 H       1  UNL1        0.0427
     33 H           1.4561    0.3260   -2.3957 H       1  UNL1        0.0427
     34 H           1.7454   -0.0580    1.7928 H       1  UNL1        0.0427
     35 H           1.1235   -1.4245    0.8667 H       1  UNL1        0.0427
     36 H           3.4794   -0.1756   -1.4973 H       1  UNL1        0.0430
     37 H           3.2208   -1.3516   -0.2247 H       1  UNL1        0.0430
     38 H           3.8525    0.4945    1.4646 H       1  UNL1        0.0326
     39 H           4.0702    1.5983    0.1260 H       1  UNL1        0.0326
     40 H          -3.2437   -1.1083   -1.9580 H       1  UNL1        0.0637
     41 H          -4.2434    0.2872    1.9991 H       1  UNL1        0.0637
     42 H          -4.3434    1.9810   -1.2434 H       1  UNL1        0.0664
     43 H           5.4036   -1.3752    1.8684 H       1  UNL1        0.0620
     44 H           5.9876    1.3655   -1.4076 H       1  UNL1        0.0620
     45 H          -5.2362   -2.5635   -1.9397 H       1  UNL1        0.0647
     46 H          -6.2387   -1.1669    1.9980 H       1  UNL1        0.0647
     47 H           7.7296   -2.1666    1.6117 H       1  UNL1        0.0618
     48 H           8.3113    0.5649   -1.6539 H       1  UNL1        0.0618
     49 H           9.1877   -1.2007   -0.1477 H       1  UNL1        0.0618
     50 H          -5.3892    3.9434   -0.2670 H       1  UNL1        0.0536
     51 H          -4.0277    4.0888    0.9847 H       1  UNL1        0.0536
@<TRIPOS>BOND
     1     1    22    1
     2     2    13    2
     3     3     8    1
     4     3     9    1
     5     3    10    1
     6     4     5    1
     7     4    12    1
     8     4    13   am
     9     5     6    1
    10     5     7    1
    11     5    27    1
    12     6     8    1
    13     6    28    1
    14     6    29    1
    15     7     9    1
    16     7    30    1
    17     7    31    1
    18     8    32    1
    19     8    33    1
    20     9    34    1
    21     9    35    1
    22    10    11    1
    23    10    36    1
    24    10    37    1
    25    11    14    1
    26    11    38    1
    27    11    39    1
    28    12    15   ar
    29    12    16   ar
    30    13    17    1
    31    14    18   ar
    32    14    19   ar
    33    15    20   ar
    34    15    40    1
    35    16    21   ar
    36    16    41    1
    37    17    25    2
    38    17    42    1
    39    18    23   ar
    40    18    43    1
    41    19    24   ar
    42    19    44    1
    43    20    22   ar
    44    20    45    1
    45    21    22   ar
    46    21    46    1
    47    23    26   ar
    48    23    47    1
    49    24    26   ar
    50    24    48    1
    51    25    50    1
    52    25    51    1
    53    26    49    1
@<TRIPOS>MOLECULE
137700503
 57 59 0 0 0
SMALL
GASTEIGER

@<TRIPOS>ATOM
      1 O          -1.8760    2.1719    0.7796 O.2     1  UNL1       -0.2703
      2 N           1.9136    0.1231   -0.2515 N.3     1  UNL1       -0.3019
      3 N          -2.2977   -0.0855    0.1366 N.am    1  UNL1       -0.2648
      4 C          -0.9429   -0.4987   -0.1321 C.3     1  UNL1        0.0337
      5 C          -0.3348    0.3307   -1.2629 C.3     1  UNL1       -0.0210
      6 C          -0.0766   -0.3951    1.1234 C.3     1  UNL1       -0.0210
      7 C           1.1346   -0.0299   -1.4880 C.3     1  UNL1        0.0006
      8 C           1.3841   -0.7328    0.8192 C.3     1  UNL1        0.0006
      9 C           3.3244   -0.1766   -0.4955 C.3     1  UNL1        0.0029
     10 C           4.2196    0.5400    0.5160 C.3     1  UNL1       -0.0149
     11 C          -3.3723   -1.0583   -0.0464 C.ar    1  UNL1        0.0369
     12 C          -2.6366    1.2269    0.5720 C.2     1  UNL1        0.2438
     13 C           5.6788    0.2570    0.2621 C.ar    1  UNL1       -0.0462
     14 C          -3.3757   -2.2411    0.6928 C.ar    1  UNL1       -0.0403
     15 C          -4.3949   -0.8041   -0.9604 C.ar    1  UNL1       -0.0403
     16 C          -4.0802    1.4267    0.8796 C.2     1  UNL1       -0.0006
     17 C           6.2952   -0.8332    0.8762 C.ar    1  UNL1       -0.0585
     18 C           6.4121    1.0855   -0.5872 C.ar    1  UNL1       -0.0585
     19 C          -4.4018   -3.1696    0.5182 C.ar    1  UNL1       -0.0600
     20 C          -5.4211   -1.7326   -1.1350 C.ar    1  UNL1       -0.0600
     21 C          -4.8423    2.3297    0.2379 C.2     1  UNL1       -0.0708
     22 C          -5.4246   -2.9154   -0.3957 C.ar    1  UNL1       -0.0616
     23 C           7.6451   -1.0947    0.6412 C.ar    1  UNL1       -0.0615
     24 C           7.7619    0.8240   -0.8222 C.ar    1  UNL1       -0.0615
     25 C           8.3784   -0.2661   -0.2079 C.ar    1  UNL1       -0.0617
     26 C          -4.3855    3.2050   -0.8962 C.3     1  UNL1       -0.0436
     27 C          -6.2848    2.5133    0.6261 C.3     1  UNL1       -0.0436
     28 H          -0.9470   -1.5477   -0.4587 H       1  UNL1        0.0505
     29 H          -0.3992    1.4048   -1.0539 H       1  UNL1        0.0296
     30 H          -0.8979    0.1657   -2.1900 H       1  UNL1        0.0296
     31 H          -0.1157    0.6108    1.5571 H       1  UNL1        0.0296
     32 H          -0.4543   -1.0755    1.8964 H       1  UNL1        0.0296
     33 H           1.2093   -1.0561   -1.8716 H       1  UNL1        0.0427
     34 H           1.5284    0.6377   -2.2643 H       1  UNL1        0.0427
     35 H           1.9535   -0.5954    1.7448 H       1  UNL1        0.0427
     36 H           1.4622   -1.7939    0.5470 H       1  UNL1        0.0427
     37 H           3.6140    0.1830   -1.4928 H       1  UNL1        0.0430
     38 H           3.5134   -1.2586   -0.5025 H       1  UNL1        0.0430
     39 H           3.9810    0.2426    1.5441 H       1  UNL1        0.0326
     40 H           4.0472    1.6239    0.4737 H       1  UNL1        0.0326
     41 H          -2.5895   -2.4508    1.4129 H       1  UNL1        0.0636
     42 H          -4.3889    0.0884   -1.5801 H       1  UNL1        0.0636
     43 H          -4.4875    0.8207    1.6843 H       1  UNL1        0.0669
     44 H           5.7337   -1.4872    1.5382 H       1  UNL1        0.0620
     45 H           5.9426    1.9367   -1.0729 H       1  UNL1        0.0620
     46 H          -4.4051   -4.0902    1.0944 H       1  UNL1        0.0618
     47 H          -6.2118   -1.5393   -1.8540 H       1  UNL1        0.0618
     48 H          -6.2224   -3.6393   -0.5332 H       1  UNL1        0.0618
     49 H           8.1250   -1.9438    1.1190 H       1  UNL1        0.0618
     50 H           8.3329    1.4688   -1.4839 H       1  UNL1        0.0618
     51 H           9.4293   -0.4698   -0.3911 H       1  UNL1        0.0618
     52 H          -5.0453    3.0748   -1.7607 H       1  UNL1        0.0274
     53 H          -3.3702    2.9798   -1.2335 H       1  UNL1        0.0274
     54 H          -4.4145    4.2571   -0.5951 H       1  UNL1        0.0274
     55 H          -6.4644    3.5474    0.9378 H       1  UNL1        0.0274
     56 H          -6.9380    2.2866   -0.2230 H       1  UNL1        0.0274
     57 H          -6.5791    1.8604    1.4547 H       1  UNL1        0.0274
@<TRIPOS>BOND
     1     1    12    2
     2     2     7    1
     3     2     8    1
     4     2     9    1
     5     3     4    1
     6     3    11    1
     7     3    12   am
     8     4     5    1
     9     4     6    1
    10     4    28    1
    11     5     7    1
    12     5    29    1
    13     5    30    1
    14     6     8    1
    15     6    31    1
    16     6    32    1
    17     7    33    1
    18     7    34    1
    19     8    35    1
    20     8    36    1
    21     9    10    1
    22     9    37    1
    23     9    38    1
    24    10    13    1
    25    10    39    1
    26    10    40    1
    27    11    14   ar
    28    11    15   ar
    29    12    16    1
    30    13    17   ar
    31    13    18   ar
    32    14    19   ar
    33    14    41    1
    34    15    20   ar
    35    15    42    1
    36    16    21    2
    37    16    43    1
    38    17    23   ar
    39    17    44    1
    40    18    24   ar
    41    18    45    1
    42    19    22   ar
    43    19    46    1
    44    20    22   ar
    45    20    47    1
    46    21    26    1
    47    21    27    1
    48    22    48    1
    49    23    25   ar
    50    23    49    1
    51    24    25   ar
    52    24    50    1
    53    25    51    1
    54    26    52    1
    55    26    53    1
    56    26    54    1
    57    27    55    1
    58    27    56    1
    59    27    57    1
@<TRIPOS>MOLECULE
165361490
 64 66 0 0 0
SMALL
GASTEIGER

@<TRIPOS>ATOM
      1 F           7.7432   -0.3109    1.5698 F       1  UNL1       -0.1658
      2 F           7.6872   -1.8998    0.0871 F       1  UNL1       -0.1658
      3 F           8.2248    0.1154   -0.5075 F       1  UNL1       -0.1658
      4 O          -4.3061    2.2760   -1.4387 O.2     1  UNL1       -0.2753
      5 O           2.9002   -2.0340   -1.0072 O.3     1  UNL1       -0.4948
      6 O           6.2682    2.0310    0.5873 O.3     1  UNL1       -0.4945
      7 N          -0.5024    0.4416    0.1654 N.3     1  UNL1       -0.3019
      8 N          -4.7219    0.3128   -0.1748 N.am    1  UNL1       -0.2683
      9 C          -3.3776   -0.0915    0.1530 C.3     1  UNL1        0.0334
     10 C          -2.5225   -0.2106   -1.1084 C.3     1  UNL1       -0.0210
     11 C          -2.7346    0.8846    1.1387 C.3     1  UNL1       -0.0210
     12 C          -1.0706   -0.5487   -0.7594 C.3     1  UNL1        0.0006
     13 C          -1.2761    0.5088    1.4128 C.3     1  UNL1        0.0006
     14 C           0.8989    0.1323    0.4486 C.3     1  UNL1        0.0030
     15 C           1.7858    0.5886   -0.7096 C.3     1  UNL1       -0.0113
     16 C          -5.8053   -0.6071    0.1680 C.ar    1  UNL1        0.0366
     17 C          -5.0407    1.5936   -0.7201 C.2     1  UNL1        0.2198
     18 C           3.2378    0.2735   -0.4521 C.ar    1  UNL1       -0.0010
     19 C          -6.4424    2.1003   -0.3932 C.3     1  UNL1        0.0217
     20 C          -6.6913   -1.0400   -0.8184 C.ar    1  UNL1       -0.0403
     21 C          -5.9527   -1.0521    1.4818 C.ar    1  UNL1       -0.0403
     22 C           3.7250   -1.0235   -0.6133 C.ar    1  UNL1        0.1241
     23 C           4.0964    1.2958   -0.0485 C.ar    1  UNL1       -0.0127
     24 C          -6.5198    3.6182   -0.3260 C.3     1  UNL1       -0.0570
     25 C          -7.7247   -1.9179   -0.4912 C.ar    1  UNL1       -0.0600
     26 C          -6.9860   -1.9299    1.8090 C.ar    1  UNL1       -0.0600
     27 C           5.4423    1.0212    0.1940 C.ar    1  UNL1        0.1322
     28 C           5.0709   -1.2982   -0.3708 C.ar    1  UNL1       -0.0045
     29 C           5.9295   -0.2759    0.0328 C.ar    1  UNL1        0.0998
     30 C          -7.8721   -2.3629    0.8224 C.ar    1  UNL1       -0.0616
     31 C           7.3670   -0.5882    0.2882 C.3     1  UNL1        0.4209
     32 C           3.4825   -3.3285   -1.1468 C.3     1  UNL1        0.0788
     33 C           5.6870    3.3259    0.7272 C.3     1  UNL1        0.0788
     34 H          -3.3999   -1.0848    0.6218 H       1  UNL1        0.0505
     35 H          -2.5245    0.7162   -1.6916 H       1  UNL1        0.0296
     36 H          -2.9323   -0.9883   -1.7649 H       1  UNL1        0.0296
     37 H          -3.2935    0.8926    2.0822 H       1  UNL1        0.0296
     38 H          -2.7666    1.9116    0.7529 H       1  UNL1        0.0296
     39 H          -1.0265   -1.5574   -0.3273 H       1  UNL1        0.0427
     40 H          -0.5115   -0.5784   -1.7001 H       1  UNL1        0.0427
     41 H          -0.8518    1.2729    2.0756 H       1  UNL1        0.0427
     42 H          -1.2353   -0.4481    1.9499 H       1  UNL1        0.0427
     43 H           1.0352   -0.9324    0.6781 H       1  UNL1        0.0430
     44 H           1.2292    0.6786    1.3431 H       1  UNL1        0.0430
     45 H           1.5029    0.1181   -1.6582 H       1  UNL1        0.0327
     46 H           1.6592    1.6675   -0.8720 H       1  UNL1        0.0327
     47 H          -6.7720    1.7185    0.5779 H       1  UNL1        0.0356
     48 H          -7.1308    1.7399   -1.1644 H       1  UNL1        0.0356
     49 H          -6.5826   -0.7093   -1.8481 H       1  UNL1        0.0636
     50 H          -5.2780   -0.7181    2.2653 H       1  UNL1        0.0636
     51 H           3.6619    2.2833    0.0638 H       1  UNL1        0.0658
     52 H          -6.2751    4.0686   -1.2935 H       1  UNL1        0.0234
     53 H          -7.5290    3.9372   -0.0481 H       1  UNL1        0.0234
     54 H          -5.8161    4.0122    0.4146 H       1  UNL1        0.0234
     55 H          -8.4134   -2.2566   -1.2597 H       1  UNL1        0.0618
     56 H          -7.1022   -2.2748    2.8323 H       1  UNL1        0.0618
     57 H           5.4983   -2.2882   -0.4814 H       1  UNL1        0.0661
     58 H          -8.6767   -3.0464    1.0773 H       1  UNL1        0.0618
     59 H           2.6839   -4.0066   -1.4656 H       1  UNL1        0.0660
     60 H           4.2448   -3.3467   -1.9331 H       1  UNL1        0.0660
     61 H           3.8566   -3.7091   -0.1902 H       1  UNL1        0.0660
     62 H           6.4860    4.0040    1.0449 H       1  UNL1        0.0660
     63 H           5.3113    3.7060   -0.2290 H       1  UNL1        0.0660
     64 H           4.9251    3.3443    1.5139 H       1  UNL1        0.0660
@<TRIPOS>BOND
     1     1    31    1
     2     2    31    1
     3     3    31    1
     4     4    17    2
     5     5    22    1
     6     5    32    1
     7     6    27    1
     8     6    33    1
     9     7    12    1
    10     7    13    1
    11     7    14    1
    12     8     9    1
    13     8    16    1
    14     8    17   am
    15     9    10    1
    16     9    11    1
    17     9    34    1
    18    10    12    1
    19    10    35    1
    20    10    36    1
    21    11    13    1
    22    11    37    1
    23    11    38    1
    24    12    39    1
    25    12    40    1
    26    13    41    1
    27    13    42    1
    28    14    15    1
    29    14    43    1
    30    14    44    1
    31    15    18    1
    32    15    45    1
    33    15    46    1
    34    16    20   ar
    35    16    21   ar
    36    17    19    1
    37    18    22   ar
    38    18    23   ar
    39    19    24    1
    40    19    47    1
    41    19    48    1
    42    20    25   ar
    43    20    49    1
    44    21    26   ar
    45    21    50    1
    46    22    28   ar
    47    23    27   ar
    48    23    51    1
    49    24    52    1
    50    24    53    1
    51    24    54    1
    52    25    30   ar
    53    25    55    1
    54    26    30   ar
    55    26    56    1
    56    27    29   ar
    57    28    29   ar
    58    28    57    1
    59    29    31    1
    60    30    58    1
    61    32    59    1
    62    32    60    1
    63    32    61    1
    64    33    62    1
    65    33    63    1
    66    33    64    1
@<TRIPOS>MOLECULE
137700090
 54 56 0 0 0
SMALL
GASTEIGER

@<TRIPOS>ATOM
      1 O          -2.1187    2.5782   -0.4018 O.2     1  UNL1       -0.2700
      2 N           1.6776    0.1378   -0.3957 N.3     1  UNL1       -0.3019
      3 N          -2.5487    0.2516   -0.1627 N.am    1  UNL1       -0.2646
      4 C          -1.2142   -0.2852   -0.2592 C.3     1  UNL1        0.0337
      5 C          -0.5204    0.2056   -1.5296 C.3     1  UNL1       -0.0210
      6 C          -0.3835    0.0805    0.9711 C.3     1  UNL1       -0.0210
      7 C           0.9304   -0.2756   -1.5915 C.3     1  UNL1        0.0006
      8 C           1.0624   -0.3976    0.8266 C.3     1  UNL1        0.0006
      9 C           3.0742   -0.2861   -0.4935 C.3     1  UNL1        0.0029
     10 C           3.9794    0.6109    0.3515 C.3     1  UNL1       -0.0149
     11 C          -3.6663   -0.6946   -0.1522 C.ar    1  UNL1        0.0369
     12 C          -2.8073    1.6405    0.0033 C.2     1  UNL1        0.2463
     13 C           5.4257    0.1981    0.2422 C.ar    1  UNL1       -0.0462
     14 C          -4.6836   -0.5828   -1.0999 C.ar    1  UNL1       -0.0403
     15 C          -3.7135   -1.7075    0.8056 C.ar    1  UNL1       -0.0403
     16 C          -4.0716    1.9887    0.7131 C.2     1  UNL1        0.0047
     17 C           5.9535   -0.7368    1.1327 C.ar    1  UNL1       -0.0585
     18 C           6.2355    0.7513   -0.7495 C.ar    1  UNL1       -0.0585
     19 C          -5.7484   -1.4840   -1.0898 C.ar    1  UNL1       -0.0600
     20 C          -4.7780   -2.6086    0.8157 C.ar    1  UNL1       -0.0600
     21 C          -5.0346    2.8851    0.0077 C.3     1  UNL1       -0.0353
     22 C          -5.7956   -2.4969   -0.1320 C.ar    1  UNL1       -0.0616
     23 C          -4.2205    1.5412    1.9673 C.2     1  UNL1       -0.0908
     24 C           7.2915   -1.1183    1.0315 C.ar    1  UNL1       -0.0615
     25 C           7.5732    0.3697   -0.8508 C.ar    1  UNL1       -0.0615
     26 C           8.1013   -0.5650    0.0398 C.ar    1  UNL1       -0.0617
     27 H          -1.2676   -1.3807   -0.3219 H       1  UNL1        0.0505
     28 H          -0.5163    1.2985   -1.5957 H       1  UNL1        0.0296
     29 H          -1.0630   -0.1529   -2.4131 H       1  UNL1        0.0296
     30 H          -0.3795    1.1659    1.1341 H       1  UNL1        0.0296
     31 H          -0.8270   -0.3633    1.8706 H       1  UNL1        0.0296
     32 H           0.9535   -1.3673   -1.7078 H       1  UNL1        0.0427
     33 H           1.3894    0.1573   -2.4889 H       1  UNL1        0.0427
     34 H           1.6093   -0.0647    1.7154 H       1  UNL1        0.0427
     35 H           1.0834   -1.4957    0.8271 H       1  UNL1        0.0427
     36 H           3.4171   -0.2001   -1.5341 H       1  UNL1        0.0430
     37 H           3.1960   -1.3445   -0.2262 H       1  UNL1        0.0430
     38 H           3.6903    0.5900    1.4091 H       1  UNL1        0.0326
     39 H           3.8759    1.6580    0.0368 H       1  UNL1        0.0326
     40 H          -4.6528    0.1919   -1.8614 H       1  UNL1        0.0636
     41 H          -2.9339   -1.8045    1.5563 H       1  UNL1        0.0636
     42 H           5.3319   -1.1764    1.9083 H       1  UNL1        0.0620
     43 H           5.8352    1.4791   -1.4503 H       1  UNL1        0.0620
     44 H          -6.5389   -1.3989   -1.8296 H       1  UNL1        0.0618
     45 H          -4.8159   -3.3962    1.5626 H       1  UNL1        0.0618
     46 H          -4.5740    3.8557   -0.2029 H       1  UNL1        0.0279
     47 H          -5.3527    2.4426   -0.9410 H       1  UNL1        0.0279
     48 H          -5.9330    3.0655    0.6074 H       1  UNL1        0.0279
     49 H          -6.6243   -3.1988   -0.1241 H       1  UNL1        0.0618
     50 H          -5.1058    1.7905    2.5434 H       1  UNL1        0.0539
     51 H          -3.4674    0.9358    2.4613 H       1  UNL1        0.0539
     52 H           7.7025   -1.8466    1.7245 H       1  UNL1        0.0618
     53 H           8.2038    0.8000   -1.6234 H       1  UNL1        0.0618
     54 H           9.1429   -0.8622   -0.0393 H       1  UNL1        0.0618
@<TRIPOS>BOND
     1     1    12    2
     2     2     7    1
     3     2     8    1
     4     2     9    1
     5     3     4    1
     6     3    11    1
     7     3    12   am
     8     4     5    1
     9     4     6    1
    10     4    27    1
    11     5     7    1
    12     5    28    1
    13     5    29    1
    14     6     8    1
    15     6    30    1
    16     6    31    1
    17     7    32    1
    18     7    33    1
    19     8    34    1
    20     8    35    1
    21     9    10    1
    22     9    36    1
    23     9    37    1
    24    10    13    1
    25    10    38    1
    26    10    39    1
    27    11    14   ar
    28    11    15   ar
    29    12    16    1
    30    13    17   ar
    31    13    18   ar
    32    14    19   ar
    33    14    40    1
    34    15    20   ar
    35    15    41    1
    36    16    21    1
    37    16    23    2
    38    17    24   ar
    39    17    42    1
    40    18    25   ar
    41    18    43    1
    42    19    22   ar
    43    19    44    1
    44    20    22   ar
    45    20    45    1
    46    21    46    1
    47    21    47    1
    48    21    48    1
    49    22    49    1
    50    23    50    1
    51    23    51    1
    52    24    26   ar
    53    24    52    1
    54    25    26   ar
    55    25    53    1
    56    26    54    1
@<TRIPOS>MOLECULE
62281
 56 58 0 0 0
SMALL
GASTEIGER

@<TRIPOS>ATOM
      1 O          -3.9988   -2.7998    0.1121 O.2     1  UNL1       -0.2753
      2 N           1.1921   -0.3625   -0.3616 N.3     1  UNL1       -0.2992
      3 N          -3.0164   -0.6450    0.0102 N.am    1  UNL1       -0.2683
      4 C          -1.6391   -1.0550   -0.1054 C.3     1  UNL1        0.0334
      5 C          -1.0342   -0.5666   -1.4213 C.3     1  UNL1       -0.0210
      6 C          -0.8124   -0.5468    1.0762 C.3     1  UNL1       -0.0210
      7 C           0.4543   -0.9080   -1.5092 C.3     1  UNL1        0.0009
      8 C           0.6685   -0.8902    0.9060 C.3     1  UNL1        0.0009
      9 C           2.6201   -0.6542   -0.4862 C.3     1  UNL1        0.0116
     10 C           3.3832    0.0049    0.6774 C.3     1  UNL1       -0.0123
     11 C           2.7999   -2.1720   -0.5194 C.3     1  UNL1       -0.0492
     12 C          -3.3187    0.7846    0.0250 C.ar    1  UNL1        0.0366
     13 C          -4.0985   -1.5702    0.1109 C.2     1  UNL1        0.2198
     14 C           4.8506    0.2194    0.3935 C.ar    1  UNL1       -0.0459
     15 C          -5.4845   -0.9353    0.1771 C.3     1  UNL1        0.0217
     16 C          -3.3456    1.4122    1.2345 C.ar    1  UNL1       -0.0403
     17 C          -3.5544    1.3919   -1.1722 C.ar    1  UNL1       -0.0403
     18 C           5.7582   -0.7750    0.7216 C.ar    1  UNL1       -0.0585
     19 C           5.2627    1.4070   -0.1897 C.ar    1  UNL1       -0.0585
     20 C          -6.5989   -1.9635    0.2985 C.3     1  UNL1       -0.0570
     21 C          -3.6354    2.7765    1.2482 C.ar    1  UNL1       -0.0600
     22 C          -3.8443    2.7564   -1.1586 C.ar    1  UNL1       -0.0600
     23 C           7.1138   -0.5765    0.4596 C.ar    1  UNL1       -0.0615
     24 C           6.6183    1.6053   -0.4518 C.ar    1  UNL1       -0.0615
     25 C          -3.8847    3.4487    0.0517 C.ar    1  UNL1       -0.0616
     26 C           7.5439    0.6136   -0.1272 C.ar    1  UNL1       -0.0617
     27 H          -1.6038   -2.1519   -0.0996 H       1  UNL1        0.0505
     28 H          -1.1155    0.5209   -1.5262 H       1  UNL1        0.0296
     29 H          -1.5677   -1.0087   -2.2718 H       1  UNL1        0.0296
     30 H          -1.1884   -0.9756    2.0133 H       1  UNL1        0.0296
     31 H          -0.8768    0.5424    1.1770 H       1  UNL1        0.0296
     32 H           0.5039   -1.9984   -1.5826 H       1  UNL1        0.0427
     33 H           0.8491   -0.4918   -2.4440 H       1  UNL1        0.0427
     34 H           1.1769   -0.4568    1.7728 H       1  UNL1        0.0427
     35 H           0.7470   -1.9793    0.9846 H       1  UNL1        0.0427
     36 H           2.9847   -0.2309   -1.4315 H       1  UNL1        0.0463
     37 H           3.2986   -0.5833    1.6009 H       1  UNL1        0.0328
     38 H           2.9474    0.9874    0.9100 H       1  UNL1        0.0328
     39 H           2.3105   -2.6779   -1.3539 H       1  UNL1        0.0245
     40 H           2.5459   -2.6810    0.4142 H       1  UNL1        0.0245
     41 H           3.8633   -2.3917   -0.6777 H       1  UNL1        0.0245
     42 H          -5.5440   -0.2754    1.0479 H       1  UNL1        0.0356
     43 H          -5.6614   -0.3529   -0.7324 H       1  UNL1        0.0356
     44 H          -3.1651    0.8904    2.1684 H       1  UNL1        0.0636
     45 H          -3.5367    0.8548   -2.1145 H       1  UNL1        0.0636
     46 H           5.4357   -1.7036    1.1833 H       1  UNL1        0.0620
     47 H           4.5496    2.1842   -0.4487 H       1  UNL1        0.0620
     48 H          -7.5723   -1.4656    0.3483 H       1  UNL1        0.0234
     49 H          -6.4785   -2.5694    1.2026 H       1  UNL1        0.0234
     50 H          -6.6057   -2.6403   -0.5623 H       1  UNL1        0.0234
     51 H          -3.6702    3.3148    2.1909 H       1  UNL1        0.0618
     52 H          -4.0416    3.2789   -2.0900 H       1  UNL1        0.0618
     53 H           7.8347   -1.3483    0.7134 H       1  UNL1        0.0618
     54 H           6.9532    2.5317   -0.9093 H       1  UNL1        0.0618
     55 H          -4.1118    4.5107    0.0625 H       1  UNL1        0.0618
     56 H           8.5995    0.7681   -0.3312 H       1  UNL1        0.0618
@<TRIPOS>BOND
     1     1    13    2
     2     2     7    1
     3     2     8    1
     4     2     9    1
     5     3     4    1
     6     3    12    1
     7     3    13   am
     8     4     5    1
     9     4     6    1
    10     4    27    1
    11     5     7    1
    12     5    28    1
    13     5    29    1
    14     6     8    1
    15     6    30    1
    16     6    31    1
    17     7    32    1
    18     7    33    1
    19     8    34    1
    20     8    35    1
    21     9    10    1
    22     9    11    1
    23     9    36    1
    24    10    14    1
    25    10    37    1
    26    10    38    1
    27    11    39    1
    28    11    40    1
    29    11    41    1
    30    12    16   ar
    31    12    17   ar
    32    13    15    1
    33    14    18   ar
    34    14    19   ar
    35    15    20    1
    36    15    42    1
    37    15    43    1
    38    16    21   ar
    39    16    44    1
    40    17    22   ar
    41    17    45    1
    42    18    23   ar
    43    18    46    1
    44    19    24   ar
    45    19    47    1
    46    20    48    1
    47    20    49    1
    48    20    50    1
    49    21    25   ar
    50    21    51    1
    51    22    25   ar
    52    22    52    1
    53    23    26   ar
    54    23    53    1
    55    24    26   ar
    56    24    54    1
    57    25    55    1
    58    26    56    1
@<TRIPOS>MOLECULE
70412
 43 45 0 0 0
SMALL
GASTEIGER

@<TRIPOS>ATOM
      1 N          -1.5332    1.1502    0.5963 N.3     1  UNL1       -0.2980
      2 N           2.6592    0.9212    0.8042 N.pl3   1  UNL1       -0.3263
      3 N           1.9002    2.8245   -1.8848 N.1     1  UNL1       -0.1943
      4 C           1.3922    1.3450    0.2364 C.3     1  UNL1        0.1216
      5 C           0.5799    0.0980   -0.1512 C.3     1  UNL1       -0.0055
      6 C           0.6206    2.1540    1.2925 C.3     1  UNL1       -0.0055
      7 C          -0.8765    0.4267   -0.4997 C.3     1  UNL1        0.0021
      8 C          -0.8373    2.4089    0.8923 C.3     1  UNL1        0.0021
      9 C          -2.9368    1.4050    0.2732 C.3     1  UNL1        0.0240
     10 C           1.6766    2.1732   -0.9510 C.1     1  UNL1        0.0884
     11 C          -3.7008    0.1328    0.0452 C.ar    1  UNL1       -0.0334
     12 C           3.3038   -0.2439    0.4392 C.ar    1  UNL1        0.0282
     13 C          -3.7727   -0.4064   -1.2339 C.ar    1  UNL1       -0.0573
     14 C          -4.3289   -0.4932    1.1155 C.ar    1  UNL1       -0.0573
     15 C           3.5799   -1.2498    1.3878 C.ar    1  UNL1       -0.0408
     16 C           3.7060   -0.4657   -0.8938 C.ar    1  UNL1       -0.0408
     17 C          -4.4828   -1.5882   -1.4458 C.ar    1  UNL1       -0.0615
     18 C          -5.0390   -1.6750    0.9037 C.ar    1  UNL1       -0.0615
     19 C           4.2305   -2.4274    1.0192 C.ar    1  UNL1       -0.0600
     20 C           4.3563   -1.6432   -1.2626 C.ar    1  UNL1       -0.0600
     21 C          -5.1159   -2.2225   -0.3770 C.ar    1  UNL1       -0.0617
     22 C           4.6187   -2.6240   -0.3060 C.ar    1  UNL1       -0.0616
     23 H           0.5698   -0.6217    0.6804 H       1  UNL1        0.0308
     24 H           1.0083   -0.4230   -1.0163 H       1  UNL1        0.0308
     25 H           1.1156    3.1152    1.4852 H       1  UNL1        0.0308
     26 H           0.6245    1.6126    2.2496 H       1  UNL1        0.0308
     27 H          -0.9216    0.9938   -1.4384 H       1  UNL1        0.0428
     28 H          -1.3353   -0.5501   -0.6733 H       1  UNL1        0.0428
     29 H          -1.3319    2.9162    1.7299 H       1  UNL1        0.0428
     30 H          -0.8775    3.0923    0.0342 H       1  UNL1        0.0428
     31 H          -3.0324    2.0553   -0.6079 H       1  UNL1        0.0476
     32 H          -3.4150    1.9533    1.0963 H       1  UNL1        0.0476
     33 H           2.8297    1.2093    1.7643 H       1  UNL1        0.1476
     34 H          -3.2988    0.0834   -2.0802 H       1  UNL1        0.0621
     35 H          -4.2743   -0.0773    2.1178 H       1  UNL1        0.0621
     36 H           3.2824   -1.1136    2.4254 H       1  UNL1        0.0636
     37 H           3.5314    0.2831   -1.6611 H       1  UNL1        0.0636
     38 H          -4.5458   -2.0126   -2.4436 H       1  UNL1        0.0618
     39 H          -5.5317   -2.1692    1.7360 H       1  UNL1        0.0618
     40 H           4.4344   -3.1913    1.7638 H       1  UNL1        0.0618
     41 H           4.6617   -1.7953   -2.2937 H       1  UNL1        0.0618
     42 H          -5.6694   -3.1423   -0.5420 H       1  UNL1        0.0618
     43 H           5.1258   -3.5405   -0.5931 H       1  UNL1        0.0618
@<TRIPOS>BOND
     1     1     7    1
     2     1     8    1
     3     1     9    1
     4     2     4    1
     5     2    12    1
     6     2    33    1
     7     3    10    3
     8     4     5    1
     9     4     6    1
    10     4    10    1
    11     5     7    1
    12     5    23    1
    13     5    24    1
    14     6     8    1
    15     6    25    1
    16     6    26    1
    17     7    27    1
    18     7    28    1
    19     8    29    1
    20     8    30    1
    21     9    11    1
    22     9    31    1
    23     9    32    1
    24    11    13   ar
    25    11    14   ar
    26    12    15   ar
    27    12    16   ar
    28    13    17   ar
    29    13    34    1
    30    14    18   ar
    31    14    35    1
    32    15    19   ar
    33    15    36    1
    34    16    20   ar
    35    16    37    1
    36    17    21   ar
    37    17    38    1
    38    18    21   ar
    39    18    39    1
    40    19    22   ar
    41    19    40    1
    42    20    22   ar
    43    20    41    1
    44    21    42    1
    45    22    43    1
@<TRIPOS>MOLECULE
13653684
 54 57 0 0 0
SMALL
GASTEIGER

@<TRIPOS>ATOM
      1 O          -2.9705   -2.8339    0.2424 O.2     1  UNL1       -0.2695
      2 O          -6.5707   -0.4087    0.6752 O.2     1  UNL1       -0.4703
      3 N           2.0177   -0.3877   -0.4526 N.3     1  UNL1       -0.3019
      4 N          -2.1669   -0.6240    0.1498 N.am    1  UNL1       -0.2642
      5 C          -0.7694   -0.9709    0.2204 C.3     1  UNL1        0.0337
      6 C          -0.1983   -1.2171   -1.1758 C.3     1  UNL1       -0.0210
      7 C           0.0327    0.1176    0.9343 C.3     1  UNL1       -0.0210
      8 C           1.3066   -1.4862   -1.1211 C.3     1  UNL1        0.0006
      9 C           1.5296   -0.1966    0.9202 C.3     1  UNL1        0.0006
     10 C           3.4592   -0.6364   -0.4531 C.3     1  UNL1        0.0029
     11 C           4.2214    0.5587    0.1205 C.3     1  UNL1       -0.0149
     12 C          -2.5470    0.7849    0.0579 C.ar    1  UNL1        0.0369
     13 C          -3.1938   -1.6242    0.1673 C.2     1  UNL1        0.2541
     14 C           5.7110    0.3242    0.1050 C.ar    1  UNL1       -0.0462
     15 C          -2.6660    1.3263   -1.1870 C.ar    1  UNL1       -0.0403
     16 C          -2.7552    1.4590    1.2238 C.ar    1  UNL1       -0.0403
     17 C          -4.5753   -1.1437    0.0556 C.ar    1  UNL1        0.0748
     18 C           6.3182   -0.2701    1.2011 C.ar    1  UNL1       -0.0585
     19 C           6.4491    0.7061   -1.0052 C.ar    1  UNL1       -0.0585
     20 C          -3.0280    2.6705   -1.2742 C.ar    1  UNL1       -0.0600
     21 C          -3.1174    2.8032    1.1364 C.ar    1  UNL1       -0.0600
     22 C          -5.3148   -0.9470   -1.1093 C.ar    1  UNL1       -0.0117
     23 C          -5.3512   -0.8135    1.1173 C.ar    1  UNL1        0.1038
     24 C          -3.2537    3.4089   -0.1125 C.ar    1  UNL1       -0.0616
     25 C           7.6959   -0.4873    1.1869 C.ar    1  UNL1       -0.0615
     26 C           7.8269    0.4887   -1.0193 C.ar    1  UNL1       -0.0615
     27 C          -6.5403   -0.4928   -0.6807 C.ar    1  UNL1        0.0924
     28 C           8.4502   -0.1080    0.0766 C.ar    1  UNL1       -0.0617
     29 H          -0.6807   -1.9027    0.7944 H       1  UNL1        0.0505
     30 H          -0.3767   -0.3522   -1.8264 H       1  UNL1        0.0296
     31 H          -0.7055   -2.0677   -1.6474 H       1  UNL1        0.0296
     32 H          -0.2966    0.2151    1.9759 H       1  UNL1        0.0296
     33 H          -0.0849    1.0982    0.4566 H       1  UNL1        0.0296
     34 H           1.4911   -2.4402   -0.6097 H       1  UNL1        0.0427
     35 H           1.6701   -1.5932   -2.1504 H       1  UNL1        0.0427
     36 H           2.0031    0.6577    1.4106 H       1  UNL1        0.0427
     37 H           1.7278   -1.0838    1.5359 H       1  UNL1        0.0427
     38 H           3.7987   -0.8035   -1.4839 H       1  UNL1        0.0430
     39 H           3.7013   -1.5484    0.1095 H       1  UNL1        0.0430
     40 H           3.9868    1.4696   -0.4463 H       1  UNL1        0.0326
     41 H           3.9542    0.7742    1.1598 H       1  UNL1        0.0326
     42 H          -2.4991    0.7532   -2.0925 H       1  UNL1        0.0636
     43 H          -2.6573    0.9882    2.1963 H       1  UNL1        0.0636
     44 H           5.7395   -0.5718    2.0696 H       1  UNL1        0.0620
     45 H           5.9725    1.1697   -1.8642 H       1  UNL1        0.0620
     46 H          -3.1364    3.1415   -2.2468 H       1  UNL1        0.0618
     47 H          -3.2951    3.3775    2.0409 H       1  UNL1        0.0618
     48 H          -5.0164   -1.1076   -2.1353 H       1  UNL1        0.0656
     49 H          -5.2152   -0.8038    2.1890 H       1  UNL1        0.1037
     50 H          -3.5367    4.4552   -0.1806 H       1  UNL1        0.0618
     51 H           8.1813   -0.9527    2.0398 H       1  UNL1        0.0618
     52 H           8.4144    0.7835   -1.8840 H       1  UNL1        0.0618
     53 H          -7.4484   -0.2006   -1.1875 H       1  UNL1        0.1029
     54 H           9.5229   -0.2776    0.0652 H       1  UNL1        0.0618
@<TRIPOS>BOND
     1     1    13    2
     2     2    23   ar
     3     2    27   ar
     4     3     8    1
     5     3     9    1
     6     3    10    1
     7     4     5    1
     8     4    12    1
     9     4    13   am
    10     5     6    1
    11     5     7    1
    12     5    29    1
    13     6     8    1
    14     6    30    1
    15     6    31    1
    16     7     9    1
    17     7    32    1
    18     7    33    1
    19     8    34    1
    20     8    35    1
    21     9    36    1
    22     9    37    1
    23    10    11    1
    24    10    38    1
    25    10    39    1
    26    11    14    1
    27    11    40    1
    28    11    41    1
    29    12    15   ar
    30    12    16   ar
    31    13    17    1
    32    14    18   ar
    33    14    19   ar
    34    15    20   ar
    35    15    42    1
    36    16    21   ar
    37    16    43    1
    38    17    22   ar
    39    17    23   ar
    40    18    25   ar
    41    18    44    1
    42    19    26   ar
    43    19    45    1
    44    20    24   ar
    45    20    46    1
    46    21    24   ar
    47    21    47    1
    48    22    27   ar
    49    22    48    1
    50    23    49    1
    51    24    50    1
    52    25    28   ar
    53    25    51    1
    54    26    28   ar
    55    26    52    1
    56    27    53    1
    57    28    54    1
@<TRIPOS>MOLECULE
86143852
 54 56 0 0 0
SMALL
GASTEIGER

@<TRIPOS>ATOM
      1 O          -2.0996    2.2992    1.0761 O.2     1  UNL1       -0.2724
      2 O          -4.3812    3.3848    0.5138 O.3     1  UNL1       -0.3828
      3 N           1.6485    0.1441   -0.2462 N.3     1  UNL1       -0.3019
      4 N          -2.5660    0.1706    0.1621 N.am    1  UNL1       -0.2662
      5 C          -1.2332   -0.3293   -0.0663 C.3     1  UNL1        0.0335
      6 C          -0.3568   -0.1463    1.1731 C.3     1  UNL1       -0.0210
      7 C          -0.5929    0.3584   -1.2718 C.3     1  UNL1       -0.0210
      8 C           1.0851   -0.5795    0.9021 C.3     1  UNL1        0.0006
      9 C           0.8571   -0.0904   -1.4619 C.3     1  UNL1        0.0006
     10 C           3.0426   -0.2433   -0.4608 C.3     1  UNL1        0.0029
     11 C           3.9751    0.5245    0.4767 C.3     1  UNL1       -0.0149
     12 C          -3.6817   -0.7693    0.0724 C.ar    1  UNL1        0.0366
     13 C          -2.8544    1.5310    0.4703 C.2     1  UNL1        0.2484
     14 C          -4.2280    2.0509    0.0404 C.3     1  UNL1        0.1286
     15 C           5.4183    0.1505    0.2505 C.ar    1  UNL1       -0.0462
     16 C          -4.5045   -0.9824    1.1783 C.ar    1  UNL1       -0.0403
     17 C          -3.9234   -1.4533   -1.1189 C.ar    1  UNL1       -0.0403
     18 C          -4.3382    2.0954   -1.4762 C.3     1  UNL1       -0.0303
     19 C           5.9864   -0.9033    0.9663 C.ar    1  UNL1       -0.0585
     20 C           6.1851    0.8585   -0.6748 C.ar    1  UNL1       -0.0585
     21 C          -5.5692   -1.8796    1.0931 C.ar    1  UNL1       -0.0600
     22 C          -4.9880   -2.3505   -1.2043 C.ar    1  UNL1       -0.0600
     23 C          -5.8109   -2.5637   -0.0984 C.ar    1  UNL1       -0.0616
     24 C           7.3215   -1.2490    0.7569 C.ar    1  UNL1       -0.0615
     25 C           7.5201    0.5129   -0.8842 C.ar    1  UNL1       -0.0615
     26 C           8.0883   -0.5408   -0.1683 C.ar    1  UNL1       -0.0617
     27 H          -1.2854   -1.4066   -0.2756 H       1  UNL1        0.0505
     28 H          -0.3281    0.8939    1.5102 H       1  UNL1        0.0296
     29 H          -0.7651   -0.7297    2.0076 H       1  UNL1        0.0296
     30 H          -1.1658    0.1382   -2.1807 H       1  UNL1        0.0296
     31 H          -0.6136    1.4496   -1.1526 H       1  UNL1        0.0296
     32 H           1.6651   -0.3814    1.8099 H       1  UNL1        0.0427
     33 H           1.1122   -1.6643    0.7328 H       1  UNL1        0.0427
     34 H           0.8821   -1.1509   -1.7455 H       1  UNL1        0.0427
     35 H           1.2775    0.4812   -2.2985 H       1  UNL1        0.0427
     36 H           3.3437    0.0050   -1.4883 H       1  UNL1        0.0430
     37 H           3.1811   -1.3287   -0.3639 H       1  UNL1        0.0430
     38 H           3.7280    0.3386    1.5288 H       1  UNL1        0.0326
     39 H           3.8531    1.6061    0.3305 H       1  UNL1        0.0326
     40 H          -5.0412    1.4740    0.4803 H       1  UNL1        0.0687
     41 H          -4.3227   -0.4625    2.1154 H       1  UNL1        0.0636
     42 H          -3.2939   -1.2961   -1.9905 H       1  UNL1        0.0636
     43 H          -3.5048    2.6596   -1.9115 H       1  UNL1        0.0259
     44 H          -4.3422    1.1070   -1.9363 H       1  UNL1        0.0259
     45 H          -5.2566    2.6124   -1.7761 H       1  UNL1        0.0259
     46 H           5.3984   -1.4638    1.6883 H       1  UNL1        0.0620
     47 H           5.7533    1.6802   -1.2399 H       1  UNL1        0.0620
     48 H          -6.2089   -2.0469    1.9547 H       1  UNL1        0.0618
     49 H          -5.1768   -2.8824   -2.1322 H       1  UNL1        0.0618
     50 H          -6.6397   -3.2624   -0.1649 H       1  UNL1        0.0618
     51 H          -3.7161    3.9408    0.0730 H       1  UNL1        0.2104
     52 H           7.7638   -2.0698    1.3138 H       1  UNL1        0.0618
     53 H           8.1172    1.0638   -1.6050 H       1  UNL1        0.0618
     54 H           9.1277   -0.8101   -0.3316 H       1  UNL1        0.0618
@<TRIPOS>BOND
     1     1    13    2
     2     2    14    1
     3     2    51    1
     4     3     8    1
     5     3     9    1
     6     3    10    1
     7     4     5    1
     8     4    12    1
     9     4    13   am
    10     5     6    1
    11     5     7    1
    12     5    27    1
    13     6     8    1
    14     6    28    1
    15     6    29    1
    16     7     9    1
    17     7    30    1
    18     7    31    1
    19     8    32    1
    20     8    33    1
    21     9    34    1
    22     9    35    1
    23    10    11    1
    24    10    36    1
    25    10    37    1
    26    11    15    1
    27    11    38    1
    28    11    39    1
    29    12    16   ar
    30    12    17   ar
    31    13    14    1
    32    14    18    1
    33    14    40    1
    34    15    19   ar
    35    15    20   ar
    36    16    21   ar
    37    16    41    1
    38    17    22   ar
    39    17    42    1
    40    18    43    1
    41    18    44    1
    42    18    45    1
    43    19    24   ar
    44    19    46    1
    45    20    25   ar
    46    20    47    1
    47    21    23   ar
    48    21    48    1
    49    22    23   ar
    50    22    49    1
    51    23    50    1
    52    24    26   ar
    53    24    52    1
    54    25    26   ar
    55    25    53    1
    56    26    54    1
@<TRIPOS>MOLECULE
137700067
 59 61 0 0 0
SMALL
GASTEIGER

@<TRIPOS>ATOM
      1 O          -2.0152   -1.8246   -1.3645 O.2     1  UNL1       -0.2752
      2 N           1.8200   -0.0491    0.2119 N.3     1  UNL1       -0.3019
      3 N          -2.3854    0.2066   -0.2113 N.am    1  UNL1       -0.2683
      4 C          -1.0295    0.6014    0.0788 C.3     1  UNL1        0.0334
      5 C          -0.4399   -0.2572    1.1974 C.3     1  UNL1       -0.0210
      6 C          -0.1521    0.5164   -1.1704 C.3     1  UNL1       -0.0210
      7 C           1.0305    0.0850    1.4440 C.3     1  UNL1        0.0006
      8 C           1.3085    0.8341   -0.8454 C.3     1  UNL1        0.0006
      9 C           3.2310    0.2324    0.4754 C.3     1  UNL1        0.0029
     10 C          -2.7353   -1.0947   -0.6785 C.2     1  UNL1        0.2203
     11 C           4.1293   -0.4710   -0.5426 C.3     1  UNL1       -0.0149
     12 C          -3.4528    1.1870   -0.0172 C.ar    1  UNL1        0.0366
     13 C          -4.1475   -1.5558   -0.3172 C.3     1  UNL1        0.0268
     14 C          -4.2960   -3.0839   -0.1976 C.3     1  UNL1       -0.0385
     15 C           5.5886   -0.2068   -0.2690 C.ar    1  UNL1       -0.0462
     16 C          -4.2519    1.5704   -1.0943 C.ar    1  UNL1       -0.0403
     17 C          -3.6718    1.7389    1.2449 C.ar    1  UNL1       -0.0403
     18 C          -3.3746   -3.6518    0.8856 C.3     1  UNL1       -0.0622
     19 C          -5.7483   -3.4456    0.1223 C.3     1  UNL1       -0.0622
     20 C          -5.2699    2.5059   -0.9094 C.ar    1  UNL1       -0.0600
     21 C          -4.6899    2.6743    1.4300 C.ar    1  UNL1       -0.0600
     22 C           6.2206    0.8904   -0.8540 C.ar    1  UNL1       -0.0585
     23 C           6.3062   -1.0598    0.5694 C.ar    1  UNL1       -0.0585
     24 C          -5.4890    3.0578    0.3527 C.ar    1  UNL1       -0.0616
     25 C           7.5705    1.1344   -0.6008 C.ar    1  UNL1       -0.0615
     26 C           7.6559   -0.8158    0.8226 C.ar    1  UNL1       -0.0615
     27 C           8.2881    0.2812    0.2374 C.ar    1  UNL1       -0.0617
     28 H          -1.0255    1.6480    0.4132 H       1  UNL1        0.0505
     29 H          -0.5185   -1.3242    0.9511 H       1  UNL1        0.0296
     30 H          -1.0089   -0.1135    2.1239 H       1  UNL1        0.0296
     31 H          -0.5195    1.2156   -1.9319 H       1  UNL1        0.0296
     32 H          -0.1760   -0.4767   -1.6281 H       1  UNL1        0.0296
     33 H           1.4106   -0.6032    2.2091 H       1  UNL1        0.0427
     34 H           1.1108    1.1019    1.8503 H       1  UNL1        0.0427
     35 H           1.3934    1.8884   -0.5496 H       1  UNL1        0.0427
     36 H           1.8859    0.7118   -1.7682 H       1  UNL1        0.0427
     37 H           3.5078   -0.1509    1.4676 H       1  UNL1        0.0430
     38 H           3.4297    1.3122    0.5072 H       1  UNL1        0.0430
     39 H           3.9033   -0.1497   -1.5664 H       1  UNL1        0.0326
     40 H           3.9468   -1.5538   -0.5249 H       1  UNL1        0.0326
     41 H          -4.4526   -1.1080    0.6353 H       1  UNL1        0.0361
     42 H          -4.8254   -1.1926   -1.0983 H       1  UNL1        0.0361
     43 H          -4.0276   -3.5484   -1.1546 H       1  UNL1        0.0300
     44 H          -4.0870    1.1545   -2.0850 H       1  UNL1        0.0636
     45 H          -3.0621    1.4456    2.0951 H       1  UNL1        0.0636
     46 H          -3.5779   -3.1925    1.8591 H       1  UNL1        0.0232
     47 H          -2.3194   -3.4869    0.6487 H       1  UNL1        0.0232
     48 H          -3.5195   -4.7329    0.9871 H       1  UNL1        0.0232
     49 H          -6.0651   -3.0168    1.0793 H       1  UNL1        0.0232
     50 H          -5.8751   -4.5319    0.1791 H       1  UNL1        0.0232
     51 H          -6.4215   -3.0715   -0.6563 H       1  UNL1        0.0232
     52 H          -5.8909    2.8057   -1.7484 H       1  UNL1        0.0618
     53 H          -4.8615    3.1031    2.4130 H       1  UNL1        0.0618
     54 H           5.6715    1.5633   -1.5072 H       1  UNL1        0.0620
     55 H           5.8243   -1.9168    1.0325 H       1  UNL1        0.0620
     56 H          -6.2816    3.7862    0.4968 H       1  UNL1        0.0618
     57 H           8.0627    1.9889   -1.0559 H       1  UNL1        0.0618
     58 H           8.2147   -1.4797    1.4758 H       1  UNL1        0.0618
     59 H           9.3390    0.4713    0.4348 H       1  UNL1        0.0618
@<TRIPOS>BOND
     1     1    10    2
     2     2     7    1
     3     2     8    1
     4     2     9    1
     5     3     4    1
     6     3    10   am
     7     3    12    1
     8     4     5    1
     9     4     6    1
    10     4    28    1
    11     5     7    1
    12     5    29    1
    13     5    30    1
    14     6     8    1
    15     6    31    1
    16     6    32    1
    17     7    33    1
    18     7    34    1
    19     8    35    1
    20     8    36    1
    21     9    11    1
    22     9    37    1
    23     9    38    1
    24    10    13    1
    25    11    15    1
    26    11    39    1
    27    11    40    1
    28    12    16   ar
    29    12    17   ar
    30    13    14    1
    31    13    41    1
    32    13    42    1
    33    14    18    1
    34    14    19    1
    35    14    43    1
    36    15    22   ar
    37    15    23   ar
    38    16    20   ar
    39    16    44    1
    40    17    21   ar
    41    17    45    1
    42    18    46    1
    43    18    47    1
    44    18    48    1
    45    19    49    1
    46    19    50    1
    47    19    51    1
    48    20    24   ar
    49    20    52    1
    50    21    24   ar
    51    21    53    1
    52    22    25   ar
    53    22    54    1
    54    23    26   ar
    55    23    55    1
    56    24    56    1
    57    25    27   ar
    58    25    57    1
    59    26    27   ar
    60    26    58    1
    61    27    59    1
@<TRIPOS>MOLECULE
165361475
 61 63 0 0 0
SMALL
GASTEIGER

@<TRIPOS>ATOM
      1 CL          8.3346   -0.8068    0.3606 Cl      1  UNL1       -0.0796
      2 O          -3.5078    2.2224   -1.5669 O.2     1  UNL1       -0.2753
      3 O           3.6195   -2.1838   -0.8947 O.3     1  UNL1       -0.4948
      4 O           7.0529    1.9098    0.4732 O.3     1  UNL1       -0.4936
      5 N           0.2635    0.4121    0.1379 N.3     1  UNL1       -0.3019
      6 N          -3.9578    0.3398   -0.1966 N.am    1  UNL1       -0.2683
      7 C          -2.6208   -0.0696    0.1537 C.3     1  UNL1        0.0334
      8 C          -1.7686   -0.2735   -1.0987 C.3     1  UNL1       -0.0210
      9 C          -1.9600    0.9480    1.0842 C.3     1  UNL1       -0.0210
     10 C          -0.3228   -0.6175   -0.7310 C.3     1  UNL1        0.0006
     11 C          -0.5083    0.5619    1.3794 C.3     1  UNL1        0.0006
     12 C           1.6592    0.0941    0.4384 C.3     1  UNL1        0.0030
     13 C           2.5534    0.4698   -0.7428 C.3     1  UNL1       -0.0113
     14 C          -5.0573   -0.5403    0.1961 C.ar    1  UNL1        0.0366
     15 C          -4.2541    1.5940   -0.8120 C.2     1  UNL1        0.2198
     16 C           3.9997    0.1435   -0.4676 C.ar    1  UNL1       -0.0010
     17 C          -5.6464    2.1429   -0.5143 C.3     1  UNL1        0.0217
     18 C          -5.9511   -1.0109   -0.7655 C.ar    1  UNL1       -0.0403
     19 C          -5.2123   -0.9091    1.5324 C.ar    1  UNL1       -0.0403
     20 C           4.4636   -1.1689   -0.5571 C.ar    1  UNL1        0.1249
     21 C           4.8769    1.1711   -0.1207 C.ar    1  UNL1       -0.0118
     22 C          -5.6967    3.6633   -0.5311 C.3     1  UNL1       -0.0570
     23 C          -7.0001   -1.8507   -0.3909 C.ar    1  UNL1       -0.0600
     24 C          -6.2611   -1.7489    1.9069 C.ar    1  UNL1       -0.0600
     25 C          -7.1551   -2.2195    0.9453 C.ar    1  UNL1       -0.0616
     26 C           6.2179    0.8863    0.1367 C.ar    1  UNL1        0.1388
     27 C           5.8044   -1.4538   -0.2997 C.ar    1  UNL1        0.0022
     28 C           6.6816   -0.4261    0.0472 C.ar    1  UNL1        0.0860
     29 C           4.1772   -3.4947   -0.9629 C.3     1  UNL1        0.0788
     30 C           7.1758    2.2153    1.8606 C.3     1  UNL1        0.0789
     31 H          -2.6606   -1.0348    0.6767 H       1  UNL1        0.0505
     32 H          -1.7545    0.6196   -1.7323 H       1  UNL1        0.0296
     33 H          -2.1925   -1.0789   -1.7114 H       1  UNL1        0.0296
     34 H          -2.5181    1.0181    2.0256 H       1  UNL1        0.0296
     35 H          -1.9739    1.9524    0.6422 H       1  UNL1        0.0296
     36 H          -0.2964   -1.6015   -0.2438 H       1  UNL1        0.0427
     37 H           0.2353   -0.7092   -1.6684 H       1  UNL1        0.0427
     38 H          -0.4842   -0.3644    1.9685 H       1  UNL1        0.0427
     39 H          -0.0701    1.3539    1.9991 H       1  UNL1        0.0427
     40 H           1.9996    0.6828    1.3016 H       1  UNL1        0.0430
     41 H           1.7766   -0.9586    0.7264 H       1  UNL1        0.0430
     42 H           2.2613   -0.0453   -1.6650 H       1  UNL1        0.0327
     43 H           2.4489    1.5410   -0.9617 H       1  UNL1        0.0327
     44 H          -5.9822    1.8213    0.4763 H       1  UNL1        0.0356
     45 H          -6.3415    1.7527   -1.2647 H       1  UNL1        0.0356
     46 H          -5.8368   -0.7397   -1.8118 H       1  UNL1        0.0636
     47 H          -4.5315   -0.5444    2.2967 H       1  UNL1        0.0636
     48 H           4.5220    2.1963   -0.0476 H       1  UNL1        0.0658
     49 H          -5.4445    4.0551   -1.5219 H       1  UNL1        0.0234
     50 H          -6.6999    4.0152   -0.2717 H       1  UNL1        0.0234
     51 H          -4.9856    4.0850    0.1869 H       1  UNL1        0.0234
     52 H          -7.6950   -2.2189   -1.1400 H       1  UNL1        0.0618
     53 H          -6.3832   -2.0345    2.9476 H       1  UNL1        0.0618
     54 H          -7.9719   -2.8732    1.2369 H       1  UNL1        0.0618
     55 H           6.2205   -2.4545   -0.3538 H       1  UNL1        0.0670
     56 H           3.3659   -4.1745   -1.2438 H       1  UNL1        0.0660
     57 H           4.9386   -3.5700   -1.7467 H       1  UNL1        0.0660
     58 H           4.5458   -3.8286    0.0131 H       1  UNL1        0.0660
     59 H           7.9293    2.9996    1.9728 H       1  UNL1        0.0660
     60 H           7.4969    1.3383    2.4312 H       1  UNL1        0.0660
     61 H           6.2238    2.5873    2.2526 H       1  UNL1        0.0660
@<TRIPOS>BOND
     1     1    28    1
     2     2    15    2
     3     3    20    1
     4     3    29    1
     5     4    26    1
     6     4    30    1
     7     5    10    1
     8     5    11    1
     9     5    12    1
    10     6     7    1
    11     6    14    1
    12     6    15   am
    13     7     8    1
    14     7     9    1
    15     7    31    1
    16     8    10    1
    17     8    32    1
    18     8    33    1
    19     9    11    1
    20     9    34    1
    21     9    35    1
    22    10    36    1
    23    10    37    1
    24    11    38    1
    25    11    39    1
    26    12    13    1
    27    12    40    1
    28    12    41    1
    29    13    16    1
    30    13    42    1
    31    13    43    1
    32    14    18   ar
    33    14    19   ar
    34    15    17    1
    35    16    20   ar
    36    16    21   ar
    37    17    22    1
    38    17    44    1
    39    17    45    1
    40    18    23   ar
    41    18    46    1
    42    19    24   ar
    43    19    47    1
    44    20    27   ar
    45    21    26   ar
    46    21    48    1
    47    22    49    1
    48    22    50    1
    49    22    51    1
    50    23    25   ar
    51    23    52    1
    52    24    25   ar
    53    24    53    1
    54    25    54    1
    55    26    28   ar
    56    27    28   ar
    57    27    55    1
    58    29    56    1
    59    29    57    1
    60    29    58    1
    61    30    59    1
    62    30    60    1
    63    30    61    1
@<TRIPOS>MOLECULE
165361484
 64 66 0 0 0
SMALL
GASTEIGER

@<TRIPOS>ATOM
      1 O          -3.5632   -2.3904   -1.1786 O.2     1  UNL1       -0.2753
      2 O           4.2078   -2.3096    0.7731 O.3     1  UNL1       -0.4948
      3 O           6.5123    2.4339   -0.8390 O.3     1  UNL1       -0.4948
      4 N           0.2777   -0.4815    0.2390 N.3     1  UNL1       -0.3019
      5 N          -3.9419   -0.3200   -0.0856 N.am    1  UNL1       -0.2683
      6 C          -2.6006    0.0302    0.3096 C.3     1  UNL1        0.0334
      7 C          -1.9556   -1.1023    1.1083 C.3     1  UNL1       -0.0210
      8 C          -1.7415    0.3765   -0.9069 C.3     1  UNL1       -0.0210
      9 C          -0.4998   -0.7748    1.4508 C.3     1  UNL1        0.0006
     10 C          -0.2933    0.6555   -0.4962 C.3     1  UNL1        0.0006
     11 C           1.6762   -0.2205    0.5790 C.3     1  UNL1        0.0030
     12 C           2.5672   -0.4375   -0.6438 C.3     1  UNL1       -0.0113
     13 C          -5.0323    0.5154    0.4152 C.ar    1  UNL1        0.0366
     14 C          -4.2347   -1.3696   -1.0086 C.2     1  UNL1        0.2198
     15 C           4.0189   -0.1862   -0.3221 C.ar    1  UNL1       -0.0011
     16 C          -5.5268   -1.1877   -1.7999 C.3     1  UNL1        0.0217
     17 C          -6.0875   -0.0636    1.1201 C.ar    1  UNL1       -0.0403
     18 C          -5.0172    1.8916    0.1881 C.ar    1  UNL1       -0.0403
     19 C           4.7698   -1.1352    0.3717 C.ar    1  UNL1        0.1238
     20 C           4.6096    1.0110   -0.7263 C.ar    1  UNL1       -0.0130
     21 C          -5.4712   -1.8337   -3.1760 C.3     1  UNL1       -0.0570
     22 C          -7.1275    0.7336    1.5982 C.ar    1  UNL1       -0.0600
     23 C          -6.0572    2.6887    0.6660 C.ar    1  UNL1       -0.0600
     24 C           5.9512    1.2593   -0.4365 C.ar    1  UNL1        0.1235
     25 C           6.1115   -0.8867    0.6615 C.ar    1  UNL1       -0.0133
     26 C           6.7021    0.3106    0.2574 C.ar    1  UNL1       -0.0053
     27 C          -7.1124    2.1097    1.3711 C.ar    1  UNL1       -0.0616
     28 C           8.1393    0.5597    0.5761 C.3     1  UNL1       -0.0361
     29 C           5.0478   -3.2226    1.4767 C.3     1  UNL1        0.0788
     30 C           5.6714    3.3460   -1.5425 C.3     1  UNL1        0.0788
     31 H          -2.6323    0.9100    0.9667 H       1  UNL1        0.0505
     32 H          -1.9701   -2.0488    0.5578 H       1  UNL1        0.0296
     33 H          -2.5194   -1.2757    2.0333 H       1  UNL1        0.0296
     34 H          -2.1514    1.2544   -1.4209 H       1  UNL1        0.0296
     35 H          -1.7484   -0.4407   -1.6394 H       1  UNL1        0.0296
     36 H          -0.4657    0.0707    2.1506 H       1  UNL1        0.0427
     37 H          -0.0735   -1.6430    1.9684 H       1  UNL1        0.0427
     38 H           0.2664    0.8562   -1.4151 H       1  UNL1        0.0427
     39 H          -0.2573    1.5709    0.1095 H       1  UNL1        0.0427
     40 H           1.8103    0.7872    0.9951 H       1  UNL1        0.0430
     41 H           2.0001   -0.9170    1.3633 H       1  UNL1        0.0430
     42 H           2.4556   -1.4626   -1.0220 H       1  UNL1        0.0327
     43 H           2.2750    0.2109   -1.4771 H       1  UNL1        0.0327
     44 H          -5.7374   -0.1247   -1.9521 H       1  UNL1        0.0356
     45 H          -6.3492   -1.6303   -1.2287 H       1  UNL1        0.0356
     46 H          -6.1074   -1.1331    1.3130 H       1  UNL1        0.0636
     47 H          -4.2086    2.3588   -0.3673 H       1  UNL1        0.0636
     48 H           3.9767    1.7130   -1.2584 H       1  UNL1        0.0658
     49 H          -5.3383   -2.9177   -3.0976 H       1  UNL1        0.0234
     50 H          -6.3988   -1.6438   -3.7248 H       1  UNL1        0.0234
     51 H          -4.6356   -1.4350   -3.7606 H       1  UNL1        0.0234
     52 H          -7.9481    0.2831    2.1489 H       1  UNL1        0.0618
     53 H          -6.0467    3.7599    0.4874 H       1  UNL1        0.0618
     54 H           6.7420   -1.5878    1.1974 H       1  UNL1        0.0658
     55 H          -7.9222    2.7304    1.7432 H       1  UNL1        0.0618
     56 H           8.7139    0.6977   -0.3458 H       1  UNL1        0.0279
     57 H           8.5920   -0.2738    1.1236 H       1  UNL1        0.0279
     58 H           8.2402    1.4549    1.1987 H       1  UNL1        0.0279
     59 H           4.4376   -4.0993    1.7182 H       1  UNL1        0.0660
     60 H           5.8749   -3.5755    0.8514 H       1  UNL1        0.0660
     61 H           5.3910   -2.8044    2.4292 H       1  UNL1        0.0660
     62 H           6.2810    4.2228   -1.7854 H       1  UNL1        0.0660
     63 H           5.3269    2.9271   -2.4941 H       1  UNL1        0.0660
     64 H           4.8450    3.6995   -0.9164 H       1  UNL1        0.0660
@<TRIPOS>BOND
     1     1    14    2
     2     2    19    1
     3     2    29    1
     4     3    24    1
     5     3    30    1
     6     4     9    1
     7     4    10    1
     8     4    11    1
     9     5     6    1
    10     5    13    1
    11     5    14   am
    12     6     7    1
    13     6     8    1
    14     6    31    1
    15     7     9    1
    16     7    32    1
    17     7    33    1
    18     8    10    1
    19     8    34    1
    20     8    35    1
    21     9    36    1
    22     9    37    1
    23    10    38    1
    24    10    39    1
    25    11    12    1
    26    11    40    1
    27    11    41    1
    28    12    15    1
    29    12    42    1
    30    12    43    1
    31    13    17   ar
    32    13    18   ar
    33    14    16    1
    34    15    19   ar
    35    15    20   ar
    36    16    21    1
    37    16    44    1
    38    16    45    1
    39    17    22   ar
    40    17    46    1
    41    18    23   ar
    42    18    47    1
    43    19    25   ar
    44    20    24   ar
    45    20    48    1
    46    21    49    1
    47    21    50    1
    48    21    51    1
    49    22    27   ar
    50    22    52    1
    51    23    27   ar
    52    23    53    1
    53    24    26   ar
    54    25    26   ar
    55    25    54    1
    56    26    28    1
    57    27    55    1
    58    28    56    1
    59    28    57    1
    60    28    58    1
    61    29    59    1
    62    29    60    1
    63    29    61    1
    64    30    62    1
    65    30    63    1
    66    30    64    1
@<TRIPOS>MOLECULE
165361499
 67 69 0 0 0
SMALL
GASTEIGER

@<TRIPOS>ATOM
      1 O          -4.0807    2.7177    0.4514 O.2     1  UNL1       -0.2753
      2 O           2.8080   -1.8285    1.2314 O.3     1  UNL1       -0.4948
      3 O           7.0391    0.7292   -1.2111 O.3     1  UNL1       -0.4948
      4 N           0.2533    1.4453    0.3883 N.3     1  UNL1       -0.2992
      5 N          -3.8304    0.4145   -0.0560 N.am    1  UNL1       -0.2683
      6 C          -2.3941    0.2929   -0.0745 C.3     1  UNL1        0.0334
      7 C          -1.8103    0.4543    1.3294 C.3     1  UNL1       -0.0210
      8 C          -1.7739    1.3151   -1.0267 C.3     1  UNL1       -0.0210
      9 C          -0.2801    0.4204    1.2961 C.3     1  UNL1        0.0009
     10 C          -0.2448    1.2535   -0.9806 C.3     1  UNL1        0.0009
     11 C           1.7158    1.4341    0.4069 C.3     1  UNL1        0.0117
     12 C           2.2150    0.3366   -0.5493 C.3     1  UNL1       -0.0087
     13 C           2.2181    2.8243    0.0164 C.3     1  UNL1       -0.0492
     14 C          -4.6108   -0.7418   -0.4935 C.ar    1  UNL1        0.0366
     15 C          -4.5100    1.5612    0.4565 C.2     1  UNL1        0.2198
     16 C           3.6198   -0.1308   -0.2526 C.ar    1  UNL1       -0.0008
     17 C          -5.9061    1.2874    1.0084 C.3     1  UNL1        0.0217
     18 C           3.8480   -1.1912    0.6243 C.ar    1  UNL1        0.1238
     19 C           4.6957    0.5107   -0.8662 C.ar    1  UNL1       -0.0130
     20 C          -4.4208   -1.9822    0.1156 C.ar    1  UNL1       -0.0403
     21 C          -5.5451   -0.6048   -1.5201 C.ar    1  UNL1       -0.0403
     22 C           5.9999    0.0916   -0.6030 C.ar    1  UNL1        0.1235
     23 C           5.1521   -1.6103    0.8876 C.ar    1  UNL1       -0.0133
     24 C          -6.2951    2.2416    2.1276 C.3     1  UNL1       -0.0570
     25 C           6.2280   -0.9688    0.2741 C.ar    1  UNL1       -0.0053
     26 C          -5.1651   -3.0855   -0.3019 C.ar    1  UNL1       -0.0600
     27 C          -6.2893   -1.7081   -1.9377 C.ar    1  UNL1       -0.0600
     28 C          -6.0994   -2.9485   -1.3287 C.ar    1  UNL1       -0.0616
     29 C           7.6172   -1.4305    0.5676 C.3     1  UNL1       -0.0361
     30 C           3.1316   -2.9020    2.1128 C.3     1  UNL1        0.0788
     31 C           6.7143    1.8025   -2.0924 C.3     1  UNL1        0.0788
     32 H          -2.1179   -0.7033   -0.4463 H       1  UNL1        0.0505
     33 H          -2.1798   -0.3417    1.9872 H       1  UNL1        0.0296
     34 H          -2.1311    1.4012    1.7822 H       1  UNL1        0.0296
     35 H          -2.1200    1.1299   -2.0515 H       1  UNL1        0.0296
     36 H          -2.0791    2.3377   -0.7812 H       1  UNL1        0.0296
     37 H           0.0792    0.6045    2.3162 H       1  UNL1        0.0427
     38 H           0.0458   -0.5889    1.0177 H       1  UNL1        0.0427
     39 H           0.0089    0.2857   -1.4258 H       1  UNL1        0.0427
     40 H           0.1305    2.0369   -1.6489 H       1  UNL1        0.0427
     41 H           2.0746    1.2482    1.4282 H       1  UNL1        0.0463
     42 H           1.6001   -0.5707   -0.5136 H       1  UNL1        0.0329
     43 H           2.1902    0.6720   -1.5959 H       1  UNL1        0.0329
     44 H           2.0196    3.0685   -1.0320 H       1  UNL1        0.0245
     45 H           3.2995    2.9004    0.1712 H       1  UNL1        0.0245
     46 H           1.7527    3.5979    0.6382 H       1  UNL1        0.0245
     47 H          -6.6276    1.3809    0.1903 H       1  UNL1        0.0356
     48 H          -5.9661    0.2734    1.4153 H       1  UNL1        0.0356
     49 H           4.4578    1.3262   -1.5406 H       1  UNL1        0.0658
     50 H          -3.7046   -2.1057    0.9233 H       1  UNL1        0.0636
     51 H          -5.6966    0.3534   -2.0105 H       1  UNL1        0.0636
     52 H           5.3877   -2.4281    1.5598 H       1  UNL1        0.0658
     53 H          -6.3307    3.2757    1.7695 H       1  UNL1        0.0234
     54 H          -7.2828    1.9845    2.5226 H       1  UNL1        0.0234
     55 H          -5.5716    2.1959    2.9482 H       1  UNL1        0.0234
     56 H          -5.0188   -4.0508    0.1737 H       1  UNL1        0.0618
     57 H          -7.0153   -1.6019   -2.7385 H       1  UNL1        0.0618
     58 H          -6.6789   -3.8076   -1.6537 H       1  UNL1        0.0618
     59 H           8.2017   -0.6171    1.0103 H       1  UNL1        0.0279
     60 H           8.1081   -1.7651   -0.3524 H       1  UNL1        0.0279
     61 H           7.6343   -2.2685    1.2724 H       1  UNL1        0.0279
     62 H           2.1860   -3.2911    2.5051 H       1  UNL1        0.0660
     63 H           3.6178   -3.7281    1.5827 H       1  UNL1        0.0660
     64 H           3.7130   -2.5566    2.9745 H       1  UNL1        0.0660
     65 H           7.6591    2.1934   -2.4845 H       1  UNL1        0.0660
     66 H           6.1333    1.4565   -2.9541 H       1  UNL1        0.0660
     67 H           6.2264    2.6277   -1.5622 H       1  UNL1        0.0660
@<TRIPOS>BOND
     1     1    15    2
     2     2    18    1
     3     2    30    1
     4     3    22    1
     5     3    31    1
     6     4     9    1
     7     4    10    1
     8     4    11    1
     9     5     6    1
    10     5    14    1
    11     5    15   am
    12     6     7    1
    13     6     8    1
    14     6    32    1
    15     7     9    1
    16     7    33    1
    17     7    34    1
    18     8    10    1
    19     8    35    1
    20     8    36    1
    21     9    37    1
    22     9    38    1
    23    10    39    1
    24    10    40    1
    25    11    12    1
    26    11    13    1
    27    11    41    1
    28    12    16    1
    29    12    42    1
    30    12    43    1
    31    13    44    1
    32    13    45    1
    33    13    46    1
    34    14    20   ar
    35    14    21   ar
    36    15    17    1
    37    16    18   ar
    38    16    19   ar
    39    17    24    1
    40    17    47    1
    41    17    48    1
    42    18    23   ar
    43    19    22   ar
    44    19    49    1
    45    20    26   ar
    46    20    50    1
    47    21    27   ar
    48    21    51    1
    49    22    25   ar
    50    23    25   ar
    51    23    52    1
    52    24    53    1
    53    24    54    1
    54    24    55    1
    55    25    29    1
    56    26    28   ar
    57    26    56    1
    58    27    28   ar
    59    27    57    1
    60    28    58    1
    61    29    59    1
    62    29    60    1
    63    29    61    1
    64    30    62    1
    65    30    63    1
    66    30    64    1
    67    31    65    1
    68    31    66    1
    69    31    67    1
@<TRIPOS>MOLECULE
21812144
 45 47 0 0 0
SMALL
GASTEIGER

@<TRIPOS>ATOM
      1 F           7.1555    1.8741    0.3703 F       1  UNL1       -0.2055
      2 N          -1.1036   -1.2309    0.1330 N.3     1  UNL1       -0.3019
      3 N           2.4297   -0.7550   -0.6961 N.pl3   1  UNL1       -0.3409
      4 C           1.8011   -1.6795    0.2279 C.3     1  UNL1        0.0230
      5 C           1.0483   -0.9092    1.3145 C.3     1  UNL1       -0.0217
      6 C           0.8455   -2.6085   -0.5238 C.3     1  UNL1       -0.0217
      7 C          -0.2274   -0.2477    0.7834 C.3     1  UNL1        0.0006
      8 C          -0.4226   -1.8868   -0.9909 C.3     1  UNL1        0.0006
      9 C          -2.3407   -0.5943   -0.3190 C.3     1  UNL1        0.0029
     10 C          -3.3089   -0.3894    0.8467 C.3     1  UNL1       -0.0149
     11 C           3.6149   -0.0947   -0.4283 C.ar    1  UNL1        0.0275
     12 C          -4.5981    0.2460    0.3901 C.ar    1  UNL1       -0.0462
     13 C           4.2700   -0.3027    0.7855 C.ar    1  UNL1       -0.0381
     14 C           4.1557    0.7786   -1.3722 C.ar    1  UNL1       -0.0381
     15 C          -4.7242    1.6352    0.3762 C.ar    1  UNL1       -0.0585
     16 C          -5.6642   -0.5552   -0.0189 C.ar    1  UNL1       -0.0585
     17 C           5.4660    0.3627    1.0554 C.ar    1  UNL1       -0.0247
     18 C           5.3515    1.4439   -1.1023 C.ar    1  UNL1       -0.0247
     19 C          -5.9164    2.2230   -0.0463 C.ar    1  UNL1       -0.0615
     20 C          -6.8564    0.0328   -0.4414 C.ar    1  UNL1       -0.0615
     21 C           6.0067    1.2358    0.1114 C.ar    1  UNL1        0.1235
     22 C          -6.9825    1.4220   -0.4552 C.ar    1  UNL1       -0.0617
     23 H           2.5552   -2.3331    0.6821 H       1  UNL1        0.0498
     24 H           1.6731   -0.1419    1.7837 H       1  UNL1        0.0295
     25 H           0.7716   -1.6111    2.1129 H       1  UNL1        0.0295
     26 H           0.5574   -3.4361    0.1382 H       1  UNL1        0.0295
     27 H           1.3484   -3.0563   -1.3898 H       1  UNL1        0.0295
     28 H          -0.7281    0.2157    1.6399 H       1  UNL1        0.0427
     29 H           0.0371    0.5620    0.0907 H       1  UNL1        0.0427
     30 H          -0.1822   -1.1631   -1.7800 H       1  UNL1        0.0427
     31 H          -1.0850   -2.6388   -1.4377 H       1  UNL1        0.0427
     32 H          -2.8446   -1.2424   -1.0496 H       1  UNL1        0.0430
     33 H          -2.1400    0.3503   -0.8424 H       1  UNL1        0.0430
     34 H           1.9560   -0.5342   -1.5648 H       1  UNL1        0.1463
     35 H          -3.5292   -1.3508    1.3297 H       1  UNL1        0.0326
     36 H          -2.8740    0.2421    1.6299 H       1  UNL1        0.0326
     37 H           3.8997   -0.9688    1.5572 H       1  UNL1        0.0637
     38 H           3.6558    0.9499   -2.3222 H       1  UNL1        0.0637
     39 H          -3.8999    2.2700    0.6902 H       1  UNL1        0.0620
     40 H          -5.5774   -1.6385   -0.0145 H       1  UNL1        0.0620
     41 H           5.9773    0.2015    1.9999 H       1  UNL1        0.0647
     42 H           5.7730    2.1237   -1.8368 H       1  UNL1        0.0647
     43 H          -6.0145    3.3046   -0.0577 H       1  UNL1        0.0618
     44 H          -7.6864   -0.5909   -0.7603 H       1  UNL1        0.0618
     45 H          -7.9106    1.8798   -0.7845 H       1  UNL1        0.0618
@<TRIPOS>BOND
     1     1    21    1
     2     2     7    1
     3     2     8    1
     4     2     9    1
     5     3     4    1
     6     3    11    1
     7     3    34    1
     8     4     5    1
     9     4     6    1
    10     4    23    1
    11     5     7    1
    12     5    24    1
    13     5    25    1
    14     6     8    1
    15     6    26    1
    16     6    27    1
    17     7    28    1
    18     7    29    1
    19     8    30    1
    20     8    31    1
    21     9    10    1
    22     9    32    1
    23     9    33    1
    24    10    12    1
    25    10    35    1
    26    10    36    1
    27    11    13   ar
    28    11    14   ar
    29    12    15   ar
    30    12    16   ar
    31    13    17   ar
    32    13    37    1
    33    14    18   ar
    34    14    38    1
    35    15    19   ar
    36    15    39    1
    37    16    20   ar
    38    16    40    1
    39    17    21   ar
    40    17    41    1
    41    18    21   ar
    42    18    42    1
    43    19    22   ar
    44    19    43    1
    45    20    22   ar
    46    20    44    1
    47    22    45    1
@<TRIPOS>MOLECULE
40537360
 56 58 0 0 0
SMALL
GASTEIGER

@<TRIPOS>ATOM
      1 O           2.2891   -2.5854   -0.6665 O.2     1  UNL1       -0.2753
      2 N          -1.5034    0.0517   -0.2819 N.3     1  UNL1       -0.3016
      3 N           2.7251   -0.3599    0.0190 N.am    1  UNL1       -0.2680
      4 C           1.3820    0.1371    0.1921 C.3     1  UNL1        0.0360
      5 C           0.7678    0.6472   -1.1277 C.3     1  UNL1       -0.0120
      6 C           0.4819   -0.9091    0.8549 C.3     1  UNL1       -0.0208
      7 C          -0.6777    1.1173   -0.8708 C.3     1  UNL1        0.0032
      8 C          -0.9515   -0.3943    1.0048 C.3     1  UNL1        0.0006
      9 C           0.8111   -0.3913   -2.2589 C.3     1  UNL1       -0.0595
     10 C          -2.8839    0.5061   -0.1154 C.3     1  UNL1        0.0029
     11 C          -3.8533   -0.6763   -0.1127 C.3     1  UNL1       -0.0149
     12 C           3.8165    0.6053    0.1203 C.ar    1  UNL1        0.0366
     13 C           3.0264   -1.7443   -0.1460 C.2     1  UNL1        0.2198
     14 C           4.4103   -2.1657    0.3399 C.3     1  UNL1        0.0217
     15 C          -5.2828   -0.2200    0.0362 C.ar    1  UNL1       -0.0462
     16 C           4.7280    0.7398   -0.9269 C.ar    1  UNL1       -0.0403
     17 C           3.9474    1.3926    1.2643 C.ar    1  UNL1       -0.0403
     18 C           4.4521   -3.6080    0.8218 C.3     1  UNL1       -0.0570
     19 C           5.7706    1.6615   -0.8301 C.ar    1  UNL1       -0.0600
     20 C           4.9900    2.3142    1.3611 C.ar    1  UNL1       -0.0600
     21 C          -5.8438   -0.0880    1.3064 C.ar    1  UNL1       -0.0585
     22 C          -6.0439    0.0701   -1.0960 C.ar    1  UNL1       -0.0585
     23 C           5.9015    2.4486    0.3138 C.ar    1  UNL1       -0.0616
     24 C          -7.1662    0.3342    1.4444 C.ar    1  UNL1       -0.0615
     25 C          -7.3661    0.4922   -0.9582 C.ar    1  UNL1       -0.0615
     26 C          -7.9274    0.6242    0.3121 C.ar    1  UNL1       -0.0617
     27 H           1.4078    0.9928    0.8790 H       1  UNL1        0.0508
     28 H           1.3466    1.5157   -1.4701 H       1  UNL1        0.0329
     29 H           0.8783   -1.1757    1.8427 H       1  UNL1        0.0296
     30 H           0.4117   -1.8380    0.2842 H       1  UNL1        0.0296
     31 H          -0.6633    1.9975   -0.2135 H       1  UNL1        0.0430
     32 H          -1.1098    1.4415   -1.8262 H       1  UNL1        0.0430
     33 H          -1.5524   -1.2087    1.4241 H       1  UNL1        0.0427
     34 H          -0.9643    0.4234    1.7381 H       1  UNL1        0.0427
     35 H           0.2908   -1.3177   -1.9997 H       1  UNL1        0.0233
     36 H           1.8412   -0.6349   -2.5361 H       1  UNL1        0.0233
     37 H           0.3313    0.0112   -3.1583 H       1  UNL1        0.0233
     38 H          -3.0018    1.1236    0.7852 H       1  UNL1        0.0430
     39 H          -3.1675    1.1517   -0.9584 H       1  UNL1        0.0430
     40 H          -3.6260   -1.3794    0.6976 H       1  UNL1        0.0326
     41 H          -3.7510   -1.2526   -1.0421 H       1  UNL1        0.0326
     42 H           4.7309   -1.5370    1.1761 H       1  UNL1        0.0356
     43 H           5.1200   -2.0417   -0.4845 H       1  UNL1        0.0356
     44 H           4.6322    0.1400   -1.8283 H       1  UNL1        0.0636
     45 H           3.2623    1.2892    2.1013 H       1  UNL1        0.0636
     46 H           4.2145   -4.3023    0.0091 H       1  UNL1        0.0234
     47 H           3.7265   -3.7719    1.6253 H       1  UNL1        0.0234
     48 H           5.4488   -3.8556    1.1999 H       1  UNL1        0.0234
     49 H           6.4792    1.7676   -1.6464 H       1  UNL1        0.0618
     50 H           5.0951    2.9236    2.2539 H       1  UNL1        0.0618
     51 H          -5.2601   -0.3090    2.1961 H       1  UNL1        0.0620
     52 H          -5.6174   -0.0272   -2.0908 H       1  UNL1        0.0620
     53 H           6.7137    3.1657    0.3896 H       1  UNL1        0.0618
     54 H          -7.6028    0.4376    2.4334 H       1  UNL1        0.0618
     55 H          -7.9588    0.7185   -1.8398 H       1  UNL1        0.0618
     56 H          -8.9568    0.9531    0.4194 H       1  UNL1        0.0618
@<TRIPOS>BOND
     1     1    13    2
     2     2     7    1
     3     2     8    1
     4     2    10    1
     5     3     4    1
     6     3    12    1
     7     3    13   am
     8     4     5    1
     9     4     6    1
    10     4    27    1
    11     5     7    1
    12     5     9    1
    13     5    28    1
    14     6     8    1
    15     6    29    1
    16     6    30    1
    17     7    31    1
    18     7    32    1
    19     8    33    1
    20     8    34    1
    21     9    35    1
    22     9    36    1
    23     9    37    1
    24    10    11    1
    25    10    38    1
    26    10    39    1
    27    11    15    1
    28    11    40    1
    29    11    41    1
    30    12    16   ar
    31    12    17   ar
    32    13    14    1
    33    14    18    1
    34    14    42    1
    35    14    43    1
    36    15    21   ar
    37    15    22   ar
    38    16    19   ar
    39    16    44    1
    40    17    20   ar
    41    17    45    1
    42    18    46    1
    43    18    47    1
    44    18    48    1
    45    19    23   ar
    46    19    49    1
    47    20    23   ar
    48    20    50    1
    49    21    24   ar
    50    21    51    1
    51    22    25   ar
    52    22    52    1
    53    23    53    1
    54    24    26   ar
    55    24    54    1
    56    25    26   ar
    57    25    55    1
    58    26    56    1
@<TRIPOS>MOLECULE
137699952
 51 53 0 0 0
SMALL
GASTEIGER

@<TRIPOS>ATOM
      1 F          -4.6240    0.6243   -1.7459 F       1  UNL1       -0.2035
      2 O          -2.0997    2.6172    0.0006 O.2     1  UNL1       -0.2703
      3 N           1.6775    0.1905   -0.2753 N.3     1  UNL1       -0.3019
      4 N          -2.5380    0.2897    0.1118 N.am    1  UNL1       -0.2622
      5 C          -1.2119   -0.2352   -0.0993 C.3     1  UNL1        0.0338
      6 C          -0.5557    0.4166   -1.3162 C.3     1  UNL1       -0.0210
      7 C          -0.3384   -0.0388    1.1401 C.3     1  UNL1       -0.0210
      8 C           0.8881   -0.0581   -1.4896 C.3     1  UNL1        0.0006
      9 C           1.0979   -0.4995    0.8854 C.3     1  UNL1        0.0006
     10 C           3.0665   -0.2225   -0.4749 C.3     1  UNL1        0.0029
     11 C           4.0063    0.5511    0.4505 C.3     1  UNL1       -0.0149
     12 C          -3.6795   -0.6256    0.0397 C.ar    1  UNL1        0.0721
     13 C          -2.7778    1.6652    0.3876 C.2     1  UNL1        0.2434
     14 C           5.4447    0.1505    0.2393 C.ar    1  UNL1       -0.0462
     15 C          -4.6881   -0.4142   -0.9002 C.ar    1  UNL1        0.1447
     16 C          -3.7574   -1.7094    0.9143 C.ar    1  UNL1       -0.0375
     17 C          -3.9815    1.9327    1.2284 C.2     1  UNL1       -0.0064
     18 C           5.9933   -0.8961    0.9804 C.ar    1  UNL1       -0.0585
     19 C           6.2263    0.8267   -0.6972 C.ar    1  UNL1       -0.0585
     20 C          -5.7746   -1.2864   -0.9655 C.ar    1  UNL1       -0.0246
     21 C          -4.8440   -2.5817    0.8490 C.ar    1  UNL1       -0.0598
     22 C          -5.8526   -2.3702   -0.0909 C.ar    1  UNL1       -0.0589
     23 C           7.3240   -1.2664    0.7849 C.ar    1  UNL1       -0.0615
     24 C           7.5568    0.4565   -0.8927 C.ar    1  UNL1       -0.0615
     25 C          -4.6639    3.0734    1.0868 C.2     1  UNL1       -0.0938
     26 C           8.1057   -0.5900   -0.1515 C.ar    1  UNL1       -0.0617
     27 H          -1.2832   -1.3130   -0.3002 H       1  UNL1        0.0505
     28 H          -1.1303    0.1812   -2.2206 H       1  UNL1        0.0296
     29 H          -0.5322    1.5075   -1.2431 H       1  UNL1        0.0296
     30 H          -0.3230    1.0161    1.4433 H       1  UNL1        0.0296
     31 H          -0.7565   -0.5959    1.9873 H       1  UNL1        0.0296
     32 H           0.8980   -1.1249   -1.7495 H       1  UNL1        0.0427
     33 H           1.3215    0.4874   -2.3370 H       1  UNL1        0.0427
     34 H           1.6762   -0.2893    1.7916 H       1  UNL1        0.0427
     35 H           1.1096   -1.5881    0.7402 H       1  UNL1        0.0427
     36 H           3.3760   -0.0010   -1.5059 H       1  UNL1        0.0430
     37 H           3.1879   -1.3075   -0.3540 H       1  UNL1        0.0430
     38 H           3.7517    0.3917    1.5051 H       1  UNL1        0.0326
     39 H           3.9014    1.6310    0.2805 H       1  UNL1        0.0326
     40 H          -2.9827   -1.8838    1.6561 H       1  UNL1        0.0637
     41 H          -4.2929    1.1945    1.9585 H       1  UNL1        0.0664
     42 H           5.3937   -1.4320    1.7114 H       1  UNL1        0.0620
     43 H           5.8096    1.6425   -1.2819 H       1  UNL1        0.0620
     44 H          -6.5599   -1.1213   -1.6973 H       1  UNL1        0.0647
     45 H          -4.9054   -3.4247    1.5310 H       1  UNL1        0.0618
     46 H          -6.6988   -3.0491   -0.1415 H       1  UNL1        0.0618
     47 H           7.7512   -2.0817    1.3615 H       1  UNL1        0.0618
     48 H           8.1655    0.9827   -1.6222 H       1  UNL1        0.0618
     49 H           9.1416   -0.8784   -0.3039 H       1  UNL1        0.0618
     50 H          -5.5367    3.2643    1.7022 H       1  UNL1        0.0536
     51 H          -4.3833    3.8324    0.3649 H       1  UNL1        0.0536
@<TRIPOS>BOND
     1     1    15    1
     2     2    13    2
     3     3     8    1
     4     3     9    1
     5     3    10    1
     6     4     5    1
     7     4    12    1
     8     4    13   am
     9     5     6    1
    10     5     7    1
    11     5    27    1
    12     6     8    1
    13     6    28    1
    14     6    29    1
    15     7     9    1
    16     7    30    1
    17     7    31    1
    18     8    32    1
    19     8    33    1
    20     9    34    1
    21     9    35    1
    22    10    11    1
    23    10    36    1
    24    10    37    1
    25    11    14    1
    26    11    38    1
    27    11    39    1
    28    12    15   ar
    29    12    16   ar
    30    13    17    1
    31    14    18   ar
    32    14    19   ar
    33    15    20   ar
    34    16    21   ar
    35    16    40    1
    36    17    25    2
    37    17    41    1
    38    18    23   ar
    39    18    42    1
    40    19    24   ar
    41    19    43    1
    42    20    22   ar
    43    20    44    1
    44    21    22   ar
    45    21    45    1
    46    22    46    1
    47    23    26   ar
    48    23    47    1
    49    24    26   ar
    50    24    48    1
    51    25    50    1
    52    25    51    1
    53    26    49    1
