@<TRIPOS>MOLECULE
5462328
 50 54 0 0 0
SMALL
GASTEIGER

@<TRIPOS>ATOM
      1 O          -0.9199    0.1999    1.4739 O.3     1  UNL1       -0.4799
      2 O          -2.2079   -1.8086    0.4126 O.3     1  UNL1       -0.4536
      3 O          -2.1515    2.6925    0.6363 O.3     1  UNL1       -0.4223
      4 O          -2.5647   -3.8122   -0.6803 O.2     1  UNL1       -0.2511
      5 O          -3.2019    1.4418   -1.0403 O.2     1  UNL1       -0.2507
      6 N           4.1477   -0.4500    0.2841 N.3     1  UNL1       -0.3015
      7 C           1.2935   -0.5616    0.8011 C.3     1  UNL1        0.0491
      8 C           1.9796   -1.4478   -0.2497 C.3     1  UNL1        0.0064
      9 C           3.1773   -0.6232   -0.8238 C.3     1  UNL1        0.0213
     10 C          -0.0929   -1.0065    1.3227 C.3     1  UNL1        0.1509
     11 C           2.2883   -0.2533    1.9375 C.3     1  UNL1       -0.0263
     12 C           0.8607    0.7046    0.1389 C.ar    1  UNL1        0.0116
     13 C           2.7205    0.7076   -1.5147 C.3     1  UNL1       -0.0110
     14 C           3.6224    0.3112    1.4220 C.3     1  UNL1       -0.0001
     15 C           1.5171    1.3590   -0.8879 C.ar    1  UNL1       -0.0383
     16 C          -0.8050   -2.0598    0.4343 C.3     1  UNL1        0.1587
     17 C           1.0010   -1.9396   -1.2855 C.2     1  UNL1       -0.0788
     18 C          -0.3687    1.1073    0.6101 C.ar    1  UNL1        0.1673
     19 C          -0.2763   -2.1987   -0.9686 C.2     1  UNL1       -0.0439
     20 C           5.4405    0.0675   -0.1519 C.3     1  UNL1       -0.0124
     21 C           0.9436    2.5412   -1.3589 C.ar    1  UNL1       -0.0545
     22 C          -0.9502    2.2748    0.1670 C.ar    1  UNL1        0.1733
     23 C          -0.2727    3.0046   -0.8182 C.ar    1  UNL1       -0.0153
     24 C          -2.9727   -2.7734   -0.1788 C.2     1  UNL1        0.3046
     25 C          -4.4170   -2.3768   -0.1279 C.3     1  UNL1        0.0333
     26 C          -3.2572    2.1910   -0.0741 C.2     1  UNL1        0.3093
     27 C          -4.5335    2.7086    0.5198 C.3     1  UNL1        0.0336
     28 H           2.3844   -2.3506    0.2325 H       1  UNL1        0.0368
     29 H           3.6705   -1.2384   -1.5891 H       1  UNL1        0.0472
     30 H          -0.0071   -1.4294    2.3321 H       1  UNL1        0.0783
     31 H           2.4901   -1.1812    2.4896 H       1  UNL1        0.0287
     32 H           1.8612    0.4533    2.6609 H       1  UNL1        0.0287
     33 H           2.4487    0.4609   -2.5501 H       1  UNL1        0.0329
     34 H           3.5394    1.4309   -1.5769 H       1  UNL1        0.0329
     35 H           3.5030    1.3708    1.1638 H       1  UNL1        0.0427
     36 H           4.3412    0.2769    2.2504 H       1  UNL1        0.0427
     37 H          -0.6486   -3.0353    0.9181 H       1  UNL1        0.0817
     38 H           1.3482   -2.1087   -2.3001 H       1  UNL1        0.0574
     39 H          -0.9089   -2.5536   -1.7752 H       1  UNL1        0.0607
     40 H           5.3983    1.1168   -0.4603 H       1  UNL1        0.0391
     41 H           5.8373   -0.5235   -0.9845 H       1  UNL1        0.0391
     42 H           6.1721   -0.0121    0.6603 H       1  UNL1        0.0391
     43 H           1.4154    3.0983   -2.1638 H       1  UNL1        0.0622
     44 H          -0.7043    3.9254   -1.2038 H       1  UNL1        0.0656
     45 H          -4.5618   -1.4364   -0.6657 H       1  UNL1        0.0342
     46 H          -4.7378   -2.2788    0.9122 H       1  UNL1        0.0342
     47 H          -5.0230   -3.1500   -0.6088 H       1  UNL1        0.0342
     48 H          -4.6122    2.3870    1.5611 H       1  UNL1        0.0342
     49 H          -5.3833    2.3027   -0.0363 H       1  UNL1        0.0342
     50 H          -4.5573    3.7988    0.4498 H       1  UNL1        0.0342
@<TRIPOS>BOND
     1     1    10    1
     2     1    18    1
     3     2    16    1
     4     2    24    1
     5     3    22    1
     6     3    26    1
     7     4    24    2
     8     5    26    2
     9     6     9    1
    10     6    14    1
    11     6    20    1
    12     7     8    1
    13     7    10    1
    14     7    11    1
    15     7    12    1
    16     8     9    1
    17     8    17    1
    18     8    28    1
    19     9    13    1
    20     9    29    1
    21    10    16    1
    22    10    30    1
    23    11    14    1
    24    11    31    1
    25    11    32    1
    26    12    15   ar
    27    12    18   ar
    28    13    15    1
    29    13    33    1
    30    13    34    1
    31    14    35    1
    32    14    36    1
    33    15    21   ar
    34    16    19    1
    35    16    37    1
    36    17    19    2
    37    17    38    1
    38    18    22   ar
    39    19    39    1
    40    20    40    1
    41    20    41    1
    42    20    42    1
    43    21    23   ar
    44    21    43    1
    45    22    23   ar
    46    23    44    1
    47    24    25    1
    48    25    45    1
    49    25    46    1
    50    25    47    1
    51    26    27    1
    52    27    48    1
    53    27    49    1
    54    27    50    1
@<TRIPOS>MOLECULE
117065092
 50 54 0 0 0
SMALL
GASTEIGER

@<TRIPOS>ATOM
      1 O          -1.0692    0.1965   -1.1229 O.3     1  UNL1       -0.4799
      2 O          -2.1600    1.8471    0.5814 O.3     1  UNL1       -0.4536
      3 O          -2.2754   -2.4293   -0.8377 O.3     1  UNL1       -0.4223
      4 O          -2.6093    3.5694   -0.8912 O.2     1  UNL1       -0.2511
      5 O          -3.0838   -1.6764    1.2259 O.2     1  UNL1       -0.2507
      6 N           4.1204    0.5032   -0.4216 N.3     1  UNL1       -0.3015
      7 C           1.2307    0.7496   -0.5431 C.3     1  UNL1        0.0491
      8 C           2.0622    1.3214    0.6154 C.3     1  UNL1        0.0064
      9 C           3.2910    0.3729    0.8008 C.3     1  UNL1        0.0213
     10 C          -0.1916    1.3182   -0.7568 C.3     1  UNL1        0.1509
     11 C           2.0767    0.7574   -1.8316 C.3     1  UNL1       -0.0263
     12 C           0.8368   -0.6479   -0.1949 C.ar    1  UNL1        0.0116
     13 C           2.8746   -1.0944    1.1620 C.3     1  UNL1       -0.0110
     14 C           3.4427    0.0751   -1.6494 C.3     1  UNL1       -0.0001
     15 C           1.5864   -1.5537    0.5339 C.ar    1  UNL1       -0.0383
     16 C          -0.7615    2.0948    0.4590 C.3     1  UNL1        0.1587
     17 C           1.2265    1.5172    1.8547 C.2     1  UNL1       -0.0788
     18 C          -0.4512   -0.9093   -0.6048 C.ar    1  UNL1        0.1673
     19 C          -0.0699    1.8520    1.7741 C.2     1  UNL1       -0.0439
     20 C           5.4377   -0.1122   -0.2979 C.3     1  UNL1       -0.0124
     21 C           1.0332   -2.8190    0.7385 C.ar    1  UNL1       -0.0545
     22 C          -1.0149   -2.1528   -0.4221 C.ar    1  UNL1        0.1733
     23 C          -0.2517   -3.1202    0.2443 C.ar    1  UNL1       -0.0153
     24 C          -2.9726    2.6636   -0.1532 C.2     1  UNL1        0.3046
     25 C          -4.4060    2.2897    0.0736 C.3     1  UNL1        0.0333
     26 C          -3.2747   -2.1368    0.1082 C.2     1  UNL1        0.3093
     27 C          -4.6272   -2.4761   -0.4445 C.3     1  UNL1        0.0336
     28 H           2.4373    2.3204    0.3460 H       1  UNL1        0.0368
     29 H           3.8892    0.7602    1.6373 H       1  UNL1        0.0472
     30 H          -0.2083    1.9960   -1.6201 H       1  UNL1        0.0783
     31 H           2.2431    1.7993   -2.1367 H       1  UNL1        0.0287
     32 H           1.5460    0.2708   -2.6603 H       1  UNL1        0.0287
     33 H           2.7327   -1.1345    2.2506 H       1  UNL1        0.0329
     34 H           3.6714   -1.8079    0.9304 H       1  UNL1        0.0329
     35 H           3.3198   -1.0148   -1.6702 H       1  UNL1        0.0427
     36 H           4.0614    0.3304   -2.5189 H       1  UNL1        0.0427
     37 H          -0.5924    3.1667    0.2787 H       1  UNL1        0.0817
     38 H           1.6973    1.4259    2.8285 H       1  UNL1        0.0574
     39 H          -0.6269    2.0297    2.6896 H       1  UNL1        0.0607
     40 H           5.9471    0.2338    0.6081 H       1  UNL1        0.0391
     41 H           6.0724    0.1824   -1.1414 H       1  UNL1        0.0391
     42 H           5.3977   -1.2058   -0.2774 H       1  UNL1        0.0391
     43 H           1.5769   -3.5716    1.3031 H       1  UNL1        0.0622
     44 H          -0.6653   -4.1107    0.4198 H       1  UNL1        0.0656
     45 H          -4.5711    1.2539   -0.2342 H       1  UNL1        0.0342
     46 H          -5.0499    2.9383   -0.5272 H       1  UNL1        0.0342
     47 H          -4.6614    2.4235    1.1277 H       1  UNL1        0.0342
     48 H          -4.8158   -1.8857   -1.3444 H       1  UNL1        0.0342
     49 H          -5.3933   -2.2354    0.2980 H       1  UNL1        0.0342
     50 H          -4.6775   -3.5448   -0.6664 H       1  UNL1        0.0342
@<TRIPOS>BOND
     1     1    10    1
     2     1    18    1
     3     2    16    1
     4     2    24    1
     5     3    22    1
     6     3    26    1
     7     4    24    2
     8     5    26    2
     9     6     9    1
    10     6    14    1
    11     6    20    1
    12     7     8    1
    13     7    10    1
    14     7    11    1
    15     7    12    1
    16     8     9    1
    17     8    17    1
    18     8    28    1
    19     9    13    1
    20     9    29    1
    21    10    16    1
    22    10    30    1
    23    11    14    1
    24    11    31    1
    25    11    32    1
    26    12    15   ar
    27    12    18   ar
    28    13    15    1
    29    13    33    1
    30    13    34    1
    31    14    35    1
    32    14    36    1
    33    15    21   ar
    34    16    19    1
    35    16    37    1
    36    17    19    2
    37    17    38    1
    38    18    22   ar
    39    19    39    1
    40    20    40    1
    41    20    41    1
    42    20    42    1
    43    21    23   ar
    44    21    43    1
    45    22    23   ar
    46    23    44    1
    47    24    25    1
    48    25    45    1
    49    25    46    1
    50    25    47    1
    51    26    27    1
    52    27    48    1
    53    27    49    1
    54    27    50    1
@<TRIPOS>MOLECULE
46781685
 50 54 0 0 0
SMALL
GASTEIGER

@<TRIPOS>ATOM
      1 O          -1.0692    0.1967   -1.1229 O.3     1  UNL1       -0.4799
      2 O          -2.1598    1.8474    0.5814 O.3     1  UNL1       -0.4536
      3 O          -2.2755   -2.4293   -0.8377 O.3     1  UNL1       -0.4223
      4 O          -2.6089    3.5698   -0.8912 O.2     1  UNL1       -0.2511
      5 O          -3.0841   -1.6766    1.2259 O.2     1  UNL1       -0.2507
      6 N           4.1205    0.5029   -0.4216 N.3     1  UNL1       -0.3015
      7 C           1.2308    0.7496   -0.5431 C.3     1  UNL1        0.0491
      8 C           2.0623    1.3213    0.6154 C.3     1  UNL1        0.0064
      9 C           3.2910    0.3727    0.8008 C.3     1  UNL1        0.0213
     10 C          -0.1915    1.3183   -0.7568 C.3     1  UNL1        0.1509
     11 C           2.0767    0.7572   -1.8316 C.3     1  UNL1       -0.0263
     12 C           0.8367   -0.6479   -0.1949 C.ar    1  UNL1        0.0116
     13 C           2.8746   -1.0946    1.1620 C.3     1  UNL1       -0.0110
     14 C           3.4427    0.0749   -1.6494 C.3     1  UNL1       -0.0001
     15 C           1.5862   -1.5538    0.5339 C.ar    1  UNL1       -0.0383
     16 C          -0.7613    2.0949    0.4589 C.3     1  UNL1        0.1587
     17 C           1.2267    1.5172    1.8546 C.2     1  UNL1       -0.0788
     18 C          -0.4513   -0.9092   -0.6048 C.ar    1  UNL1        0.1673
     19 C          -0.0697    1.8521    1.7741 C.2     1  UNL1       -0.0439
     20 C           5.4377   -0.1126   -0.2979 C.3     1  UNL1       -0.0124
     21 C           1.0330   -2.8190    0.7385 C.ar    1  UNL1       -0.0545
     22 C          -1.0150   -2.1527   -0.4220 C.ar    1  UNL1        0.1733
     23 C          -0.2520   -3.1201    0.2444 C.ar    1  UNL1       -0.0153
     24 C          -2.9724    2.6640   -0.1532 C.2     1  UNL1        0.3046
     25 C          -4.4059    2.2902    0.0736 C.3     1  UNL1        0.0333
     26 C          -3.2749   -2.1370    0.1082 C.2     1  UNL1        0.3093
     27 C          -4.6274   -2.4766   -0.4446 C.3     1  UNL1        0.0336
     28 H           2.4375    2.3203    0.3460 H       1  UNL1        0.0368
     29 H           3.8893    0.7600    1.6373 H       1  UNL1        0.0472
     30 H          -0.2081    1.9961   -1.6201 H       1  UNL1        0.0783
     31 H           1.5461    0.2707   -2.6603 H       1  UNL1        0.0287
     32 H           2.2433    1.7992   -2.1367 H       1  UNL1        0.0287
     33 H           3.6713   -1.8081    0.9304 H       1  UNL1        0.0329
     34 H           2.7326   -1.1346    2.2506 H       1  UNL1        0.0329
     35 H           4.0614    0.3300   -2.5189 H       1  UNL1        0.0427
     36 H           3.3197   -1.0150   -1.6702 H       1  UNL1        0.0427
     37 H          -0.5921    3.1669    0.2787 H       1  UNL1        0.0817
     38 H           1.6975    1.4259    2.8285 H       1  UNL1        0.0574
     39 H          -0.6267    2.0299    2.6896 H       1  UNL1        0.0607
     40 H           5.9471    0.2333    0.6081 H       1  UNL1        0.0391
     41 H           6.0725    0.1819   -1.1414 H       1  UNL1        0.0391
     42 H           5.3976   -1.2062   -0.2774 H       1  UNL1        0.0391
     43 H           1.5766   -3.5716    1.3032 H       1  UNL1        0.0622
     44 H          -0.6656   -4.1106    0.4198 H       1  UNL1        0.0656
     45 H          -4.6612    2.4242    1.1277 H       1  UNL1        0.0342
     46 H          -5.0497    2.9388   -0.5273 H       1  UNL1        0.0342
     47 H          -4.5710    1.2544   -0.2340 H       1  UNL1        0.0342
     48 H          -4.8158   -1.8866   -1.3449 H       1  UNL1        0.0342
     49 H          -5.3936   -2.2355    0.2976 H       1  UNL1        0.0342
     50 H          -4.6775   -3.5454   -0.6660 H       1  UNL1        0.0342
@<TRIPOS>BOND
     1     1    10    1
     2     1    18    1
     3     2    16    1
     4     2    24    1
     5     3    22    1
     6     3    26    1
     7     4    24    2
     8     5    26    2
     9     6     9    1
    10     6    14    1
    11     6    20    1
    12     7     8    1
    13     7    10    1
    14     7    11    1
    15     7    12    1
    16     8     9    1
    17     8    17    1
    18     8    28    1
    19     9    13    1
    20     9    29    1
    21    10    16    1
    22    10    30    1
    23    11    14    1
    24    11    31    1
    25    11    32    1
    26    12    15   ar
    27    12    18   ar
    28    13    15    1
    29    13    33    1
    30    13    34    1
    31    14    35    1
    32    14    36    1
    33    15    21   ar
    34    16    19    1
    35    16    37    1
    36    17    19    2
    37    17    38    1
    38    18    22   ar
    39    19    39    1
    40    20    40    1
    41    20    41    1
    42    20    42    1
    43    21    23   ar
    44    21    43    1
    45    22    23   ar
    46    23    44    1
    47    24    25    1
    48    25    45    1
    49    25    46    1
    50    25    47    1
    51    26    27    1
    52    27    48    1
    53    27    49    1
    54    27    50    1
@<TRIPOS>MOLECULE
133587441
 50 54 0 0 0
SMALL
GASTEIGER

@<TRIPOS>ATOM
      1 O          -1.0692    0.1964   -1.1230 O.3     1  UNL1       -0.4799
      2 O          -2.1602    1.8469    0.5814 O.3     1  UNL1       -0.4536
      3 O          -2.2753   -2.4292   -0.8377 O.3     1  UNL1       -0.4223
      4 O          -2.6096    3.5691   -0.8912 O.2     1  UNL1       -0.2511
      5 O          -3.0833   -1.6760    1.2260 O.2     1  UNL1       -0.2507
      6 N           4.1204    0.5036   -0.4215 N.3     1  UNL1       -0.3015
      7 C           1.2307    0.7497   -0.5430 C.3     1  UNL1        0.0491
      8 C           2.0620    1.3214    0.6156 C.3     1  UNL1        0.0064
      9 C           3.2910    0.3731    0.8009 C.3     1  UNL1        0.0213
     10 C          -0.1917    1.3181   -0.7568 C.3     1  UNL1        0.1509
     11 C           2.0766    0.7575   -1.8316 C.3     1  UNL1       -0.0263
     12 C           0.8369   -0.6479   -0.1950 C.ar    1  UNL1        0.0116
     13 C           2.8746   -1.0944    1.1620 C.3     1  UNL1       -0.0110
     14 C           3.4428    0.0755   -1.6493 C.3     1  UNL1       -0.0001
     15 C           1.5865   -1.5536    0.5338 C.ar    1  UNL1       -0.0383
     16 C          -0.7618    2.0945    0.4590 C.3     1  UNL1        0.1587
     17 C           1.2263    1.5172    1.8546 C.2     1  UNL1       -0.0788
     18 C          -0.4511   -0.9094   -0.6049 C.ar    1  UNL1        0.1673
     19 C          -0.0701    1.8518    1.7742 C.2     1  UNL1       -0.0439
     20 C           5.4378   -0.1118   -0.2978 C.3     1  UNL1       -0.0124
     21 C           1.0335   -2.8190    0.7382 C.ar    1  UNL1       -0.0545
     22 C          -1.0147   -2.1530   -0.4223 C.ar    1  UNL1        0.1733
     23 C          -0.2515   -3.1204    0.2440 C.ar    1  UNL1       -0.0153
     24 C          -2.9728    2.6632   -0.1533 C.2     1  UNL1        0.3046
     25 C          -4.4062    2.2892    0.0734 C.3     1  UNL1        0.0333
     26 C          -3.2745   -2.1365    0.1083 C.2     1  UNL1        0.3093
     27 C          -4.6271   -2.4757   -0.4441 C.3     1  UNL1        0.0336
     28 H           2.4371    2.3205    0.3462 H       1  UNL1        0.0368
     29 H           3.8891    0.7603    1.6374 H       1  UNL1        0.0472
     30 H          -0.2084    1.9960   -1.6200 H       1  UNL1        0.0783
     31 H           1.5460    0.2709   -2.6602 H       1  UNL1        0.0287
     32 H           2.2429    1.7995   -2.1367 H       1  UNL1        0.0287
     33 H           2.7327   -1.1345    2.2506 H       1  UNL1        0.0329
     34 H           3.6715   -1.8078    0.9303 H       1  UNL1        0.0329
     35 H           4.0615    0.3309   -2.5189 H       1  UNL1        0.0427
     36 H           3.3200   -1.0144   -1.6702 H       1  UNL1        0.0427
     37 H          -0.5927    3.1665    0.2788 H       1  UNL1        0.0817
     38 H           1.6971    1.4259    2.8285 H       1  UNL1        0.0574
     39 H          -0.6271    2.0294    2.6897 H       1  UNL1        0.0607
     40 H           5.9470    0.2342    0.6083 H       1  UNL1        0.0391
     41 H           6.0725    0.1828   -1.1412 H       1  UNL1        0.0391
     42 H           5.3978   -1.2054   -0.2773 H       1  UNL1        0.0391
     43 H           1.5772   -3.5717    1.3028 H       1  UNL1        0.0622
     44 H          -0.6650   -4.1109    0.4194 H       1  UNL1        0.0656
     45 H          -4.5710    1.2532   -0.2338 H       1  UNL1        0.0342
     46 H          -5.0501    2.9373   -0.5279 H       1  UNL1        0.0342
     47 H          -4.6617    2.4235    1.1274 H       1  UNL1        0.0342
     48 H          -4.6776   -3.5445   -0.6656 H       1  UNL1        0.0342
     49 H          -5.3931   -2.2346    0.2983 H       1  UNL1        0.0342
     50 H          -4.8156   -1.8856   -1.3443 H       1  UNL1        0.0342
@<TRIPOS>BOND
     1     1    10    1
     2     1    18    1
     3     2    16    1
     4     2    24    1
     5     3    22    1
     6     3    26    1
     7     4    24    2
     8     5    26    2
     9     6     9    1
    10     6    14    1
    11     6    20    1
    12     7     8    1
    13     7    10    1
    14     7    11    1
    15     7    12    1
    16     8     9    1
    17     8    17    1
    18     8    28    1
    19     9    13    1
    20     9    29    1
    21    10    16    1
    22    10    30    1
    23    11    14    1
    24    11    31    1
    25    11    32    1
    26    12    15   ar
    27    12    18   ar
    28    13    15    1
    29    13    33    1
    30    13    34    1
    31    14    35    1
    32    14    36    1
    33    15    21   ar
    34    16    19    1
    35    16    37    1
    36    17    19    2
    37    17    38    1
    38    18    22   ar
    39    19    39    1
    40    20    40    1
    41    20    41    1
    42    20    42    1
    43    21    23   ar
    44    21    43    1
    45    22    23   ar
    46    23    44    1
    47    24    25    1
    48    25    45    1
    49    25    46    1
    50    25    47    1
    51    26    27    1
    52    27    48    1
    53    27    49    1
    54    27    50    1
@<TRIPOS>MOLECULE
155935729
 56 60 0 0 0
SMALL
GASTEIGER

@<TRIPOS>ATOM
      1 O           1.9721    0.2195    1.1691 O.3     1  UNL1       -0.4799
      2 O           3.1888    1.8157   -0.5111 O.3     1  UNL1       -0.4536
      3 O           3.2248   -2.3963    0.9941 O.3     1  UNL1       -0.4223
      4 O           3.6047    3.5395    0.9696 O.2     1  UNL1       -0.2511
      5 O          -7.8386    0.6472    0.9995 O.3     1  UNL1       -0.4806
      6 O          -7.1207   -1.0435   -0.3442 O.2     1  UNL1       -0.2510
      7 O           4.2031   -1.6364   -0.9919 O.2     1  UNL1       -0.2507
      8 N          -3.1393    0.4613    0.0364 N.3     1  UNL1       -0.2979
      9 C          -0.2721    0.7479    0.3896 C.3     1  UNL1        0.0491
     10 C          -1.0157    1.3113   -0.8305 C.3     1  UNL1        0.0064
     11 C          -2.2122    0.3463   -1.1155 C.3     1  UNL1        0.0216
     12 C           1.1222    1.3306    0.7161 C.3     1  UNL1        0.1509
     13 C          -1.2189    0.7446    1.6063 C.3     1  UNL1       -0.0263
     14 C           0.1646   -0.6452    0.0771 C.ar    1  UNL1        0.0116
     15 C          -1.7467   -1.1138   -1.4453 C.3     1  UNL1       -0.0110
     16 C          -2.5561    0.0431    1.3151 C.3     1  UNL1        0.0002
     17 C          -0.5110   -1.5591   -0.7108 C.ar    1  UNL1       -0.0383
     18 C           1.7924    2.0935   -0.4574 C.3     1  UNL1        0.1587
     19 C          -0.0888    1.5245   -1.9992 C.2     1  UNL1       -0.0788
     20 C           1.4142   -0.8936    0.5995 C.ar    1  UNL1        0.1673
     21 C           1.1955    1.8655   -1.8186 C.2     1  UNL1       -0.0439
     22 C          -4.4321   -0.1751   -0.1928 C.3     1  UNL1        0.0093
     23 C           0.0700   -2.8191   -0.8638 C.ar    1  UNL1       -0.0545
     24 C           2.0031   -2.1318    0.4698 C.ar    1  UNL1        0.1733
     25 C           1.3101   -3.1072   -0.2588 C.ar    1  UNL1       -0.0153
     26 C          -5.5303    0.5685    0.5616 C.3     1  UNL1        0.0575
     27 C           3.9829    2.6204    0.2559 C.2     1  UNL1        0.3046
     28 C          -6.8854   -0.0548    0.3341 C.2     1  UNL1        0.3059
     29 C           5.4172    2.2143    0.1002 C.3     1  UNL1        0.0333
     30 C           4.3000   -2.0956    0.1384 C.2     1  UNL1        0.3093
     31 C           5.6022   -2.4222    0.8074 C.3     1  UNL1        0.0336
     32 H          -1.4256    2.3039   -0.5895 H       1  UNL1        0.0368
     33 H          -2.7431    0.7304   -1.9977 H       1  UNL1        0.0472
     34 H           1.0605    2.0203    1.5677 H       1  UNL1        0.0783
     35 H          -1.4235    1.7843    1.8957 H       1  UNL1        0.0287
     36 H          -0.7498    0.2655    2.4755 H       1  UNL1        0.0287
     37 H          -1.5164   -1.1513   -2.5185 H       1  UNL1        0.0329
     38 H          -2.5559   -1.8325   -1.2760 H       1  UNL1        0.0329
     39 H          -2.4146   -1.0445    1.3449 H       1  UNL1        0.0427
     40 H          -3.2303    0.2841    2.1445 H       1  UNL1        0.0427
     41 H           1.6353    3.1688   -0.2873 H       1  UNL1        0.0817
     42 H          -0.4847    1.4434   -3.0068 H       1  UNL1        0.0574
     43 H           1.8149    2.0567   -2.6905 H       1  UNL1        0.0607
     44 H          -4.4192   -1.2386    0.0786 H       1  UNL1        0.0432
     45 H          -4.6904   -0.1395   -1.2597 H       1  UNL1        0.0432
     46 H          -0.4158   -3.5781   -1.4711 H       1  UNL1        0.0622
     47 H           1.7465   -4.0940   -0.3953 H       1  UNL1        0.0656
     48 H          -5.3466    0.5533    1.6409 H       1  UNL1        0.0390
     49 H          -5.5750    1.6106    0.2234 H       1  UNL1        0.0390
     50 H           5.5471    1.1814    0.4331 H       1  UNL1        0.0342
     51 H           5.7220    2.3238   -0.9435 H       1  UNL1        0.0342
     52 H           6.0468    2.8614    0.7175 H       1  UNL1        0.0342
     53 H          -8.7324    0.2645    0.8691 H       1  UNL1        0.2951
     54 H           5.7081   -1.8265    1.7173 H       1  UNL1        0.0342
     55 H           6.4278   -2.1789    0.1325 H       1  UNL1        0.0342
     56 H           5.6410   -3.4895    1.0380 H       1  UNL1        0.0342
@<TRIPOS>BOND
     1     1    12    1
     2     1    20    1
     3     2    18    1
     4     2    27    1
     5     3    24    1
     6     3    30    1
     7     4    27    2
     8     5    28    1
     9     5    53    1
    10     6    28    2
    11     7    30    2
    12     8    11    1
    13     8    16    1
    14     8    22    1
    15     9    10    1
    16     9    12    1
    17     9    13    1
    18     9    14    1
    19    10    11    1
    20    10    19    1
    21    10    32    1
    22    11    15    1
    23    11    33    1
    24    12    18    1
    25    12    34    1
    26    13    16    1
    27    13    35    1
    28    13    36    1
    29    14    17   ar
    30    14    20   ar
    31    15    17    1
    32    15    37    1
    33    15    38    1
    34    16    39    1
    35    16    40    1
    36    17    23   ar
    37    18    21    1
    38    18    41    1
    39    19    21    2
    40    19    42    1
    41    20    24   ar
    42    21    43    1
    43    22    26    1
    44    22    44    1
    45    22    45    1
    46    23    25   ar
    47    23    46    1
    48    24    25   ar
    49    25    47    1
    50    26    28    1
    51    26    48    1
    52    26    49    1
    53    27    29    1
    54    29    50    1
    55    29    51    1
    56    29    52    1
    57    30    31    1
    58    31    54    1
    59    31    55    1
    60    31    56    1
@<TRIPOS>MOLECULE
72720475
 51 56 0 0 0
SMALL
GASTEIGER

@<TRIPOS>ATOM
      1 O           0.5882   -2.3805   -2.3131 O.3     1  UNL1       -0.3639
      2 O          -1.2271    0.0245    1.0265 O.3     1  UNL1       -0.4802
      3 O          -2.2570   -2.1132   -0.3211 O.3     1  UNL1       -0.4550
      4 O          -2.3080    2.6963    0.7913 O.3     1  UNL1       -0.4223
      5 O          -2.1136   -3.9083    1.1259 O.2     1  UNL1       -0.2512
      6 O          -2.9688    2.0648   -1.3636 O.2     1  UNL1       -0.2507
      7 N           4.0155   -0.5684    0.4834 N.3     1  UNL1       -0.3017
      8 C           1.1118   -0.5871    0.5999 C.3     1  UNL1        0.0479
      9 C           1.9066   -1.1265   -0.6055 C.3     1  UNL1        0.0170
     10 C           1.0584   -1.1098   -1.8557 C.3     1  UNL1        0.0942
     11 C          -0.3829   -1.5266   -1.6917 C.3     1  UNL1        0.1258
     12 C          -0.3323   -1.1160    0.8061 C.3     1  UNL1        0.1496
     13 C           3.2034   -0.2654   -0.7189 C.3     1  UNL1        0.0203
     14 C          -0.8383   -2.0062   -0.3457 C.3     1  UNL1        0.1688
     15 C           1.9594   -0.7239    1.8807 C.3     1  UNL1       -0.0265
     16 C           0.7883    0.8381    0.3137 C.ar    1  UNL1        0.0114
     17 C           2.9085    1.2634   -0.9266 C.3     1  UNL1       -0.0113
     18 C           3.3777   -0.1508    1.7359 C.3     1  UNL1       -0.0002
     19 C           1.6109    1.7459   -0.3312 C.ar    1  UNL1       -0.0383
     20 C          -0.5190    1.1253    0.6319 C.ar    1  UNL1        0.1673
     21 C           5.3879   -0.0807    0.3937 C.3     1  UNL1       -0.0125
     22 C           1.1199    3.0407   -0.5090 C.ar    1  UNL1       -0.0545
     23 C          -1.0267    2.3961    0.4645 C.ar    1  UNL1        0.1733
     24 C          -0.1848    3.3669   -0.0920 C.ar    1  UNL1       -0.0153
     25 C          -2.7639   -3.1138    0.4602 C.2     1  UNL1        0.3044
     26 C          -4.2609   -3.1063    0.3890 C.3     1  UNL1        0.0332
     27 C          -3.2356    2.4807   -0.2439 C.2     1  UNL1        0.3093
     28 C          -4.6175    2.8406    0.2151 C.3     1  UNL1        0.0336
     29 H           2.1925   -2.1712   -0.4123 H       1  UNL1        0.0352
     30 H           1.3052   -0.3631   -2.5951 H       1  UNL1        0.0627
     31 H          -1.1349   -1.0482   -2.3018 H       1  UNL1        0.0661
     32 H          -0.4007   -1.7039    1.7306 H       1  UNL1        0.0780
     33 H           3.7635   -0.6183   -1.5955 H       1  UNL1        0.0469
     34 H          -0.3904   -3.0012   -0.2102 H       1  UNL1        0.0799
     35 H           2.0415   -1.7901    2.1326 H       1  UNL1        0.0287
     36 H           1.4676   -0.2379    2.7333 H       1  UNL1        0.0287
     37 H           2.8495    1.4366   -2.0097 H       1  UNL1        0.0329
     38 H           3.7299    1.8893   -0.5642 H       1  UNL1        0.0329
     39 H           3.3481    0.9426    1.8197 H       1  UNL1        0.0427
     40 H           3.9702   -0.5075    2.5878 H       1  UNL1        0.0427
     41 H           5.8625   -0.4210   -0.5331 H       1  UNL1        0.0391
     42 H           5.9874   -0.4880    1.2158 H       1  UNL1        0.0391
     43 H           5.4589    1.0105    0.4387 H       1  UNL1        0.0391
     44 H           1.7256    3.7952   -1.0038 H       1  UNL1        0.0622
     45 H          -0.5523    4.3783   -0.2496 H       1  UNL1        0.0656
     46 H          -4.6437   -2.1495    0.7529 H       1  UNL1        0.0342
     47 H          -4.6584   -3.9043    1.0226 H       1  UNL1        0.0342
     48 H          -4.5835   -3.2843   -0.6398 H       1  UNL1        0.0342
     49 H          -4.8956    2.2185    1.0693 H       1  UNL1        0.0342
     50 H          -5.3283    2.6583   -0.5959 H       1  UNL1        0.0342
     51 H          -4.6534    3.8998    0.4812 H       1  UNL1        0.0342
@<TRIPOS>BOND
     1     1    10    1
     2     1    11    1
     3     2    12    1
     4     2    20    1
     5     3    14    1
     6     3    25    1
     7     4    23    1
     8     4    27    1
     9     5    25    2
    10     6    27    2
    11     7    13    1
    12     7    18    1
    13     7    21    1
    14     8     9    1
    15     8    12    1
    16     8    15    1
    17     8    16    1
    18     9    10    1
    19     9    13    1
    20     9    29    1
    21    10    11    1
    22    10    30    1
    23    11    14    1
    24    11    31    1
    25    12    14    1
    26    12    32    1
    27    13    17    1
    28    13    33    1
    29    14    34    1
    30    15    18    1
    31    15    35    1
    32    15    36    1
    33    16    19   ar
    34    16    20   ar
    35    17    19    1
    36    17    37    1
    37    17    38    1
    38    18    39    1
    39    18    40    1
    40    19    22   ar
    41    20    23   ar
    42    21    41    1
    43    21    42    1
    44    21    43    1
    45    22    24   ar
    46    22    44    1
    47    23    24   ar
    48    24    45    1
    49    25    26    1
    50    26    46    1
    51    26    47    1
    52    26    48    1
    53    27    28    1
    54    28    49    1
    55    28    50    1
    56    28    51    1
@<TRIPOS>MOLECULE
61583
 39 40 0 0 0
SMALL
GASTEIGER

@<TRIPOS>ATOM
      1 O          -0.8811    1.2969   -0.8112 O.3     1  UNL1       -0.4532
      2 O          -1.9364    0.7355    1.1623 O.2     1  UNL1       -0.2508
      3 N           3.1909    1.0811    0.0722 N.3     1  UNL1       -0.3050
      4 C           0.2945    0.5841   -0.3912 C.3     1  UNL1        0.1407
      5 C           0.8475    1.3360    0.8416 C.3     1  UNL1        0.0043
      6 C           1.3410    0.7375   -1.5188 C.3     1  UNL1        0.0043
      7 C           2.2786    0.9278    1.2122 C.3     1  UNL1        0.0025
      8 C           2.7389    0.2950   -1.0821 C.3     1  UNL1        0.0025
      9 C          -0.1336   -0.8697   -0.1772 C.ar    1  UNL1       -0.0042
     10 C           4.5528    0.7048    0.4494 C.3     1  UNL1       -0.0128
     11 C          -0.0146   -1.4516    1.0841 C.ar    1  UNL1       -0.0548
     12 C          -0.6422   -1.6097   -1.2437 C.ar    1  UNL1       -0.0548
     13 C          -1.9269    1.2889    0.0714 C.2     1  UNL1        0.3076
     14 C          -0.4048   -2.7765    1.2794 C.ar    1  UNL1       -0.0614
     15 C          -1.0325   -2.9346   -1.0483 C.ar    1  UNL1       -0.0614
     16 C          -3.0746    2.0762   -0.5160 C.3     1  UNL1        0.0421
     17 C          -0.9138   -3.5179    0.2133 C.ar    1  UNL1       -0.0617
     18 C          -4.2836    2.0962    0.4028 C.3     1  UNL1       -0.0552
     19 H           0.2263    1.2469    1.7375 H       1  UNL1        0.0320
     20 H           0.8469    2.4145    0.6210 H       1  UNL1        0.0320
     21 H           1.3799    1.7909   -1.8330 H       1  UNL1        0.0320
     22 H           1.0489    0.1912   -2.4229 H       1  UNL1        0.0320
     23 H           2.6103    1.5808    2.0293 H       1  UNL1        0.0428
     24 H           2.3182   -0.0969    1.5954 H       1  UNL1        0.0428
     25 H           2.7452   -0.7795   -0.8588 H       1  UNL1        0.0428
     26 H           3.4227    0.4547   -1.9247 H       1  UNL1        0.0428
     27 H           4.6242   -0.3471    0.7489 H       1  UNL1        0.0391
     28 H           4.9076    1.3250    1.2800 H       1  UNL1        0.0391
     29 H           5.2433    0.8734   -0.3844 H       1  UNL1        0.0391
     30 H           0.3467   -0.9193    1.9550 H       1  UNL1        0.0622
     31 H          -0.7583   -1.1716   -2.2307 H       1  UNL1        0.0622
     32 H          -0.3189   -3.2294    2.2628 H       1  UNL1        0.0618
     33 H          -1.4327   -3.5109   -1.8772 H       1  UNL1        0.0618
     34 H          -2.7356    3.1023   -0.6930 H       1  UNL1        0.0375
     35 H          -3.3537    1.6200   -1.4717 H       1  UNL1        0.0375
     36 H          -1.2199   -4.5486    0.3659 H       1  UNL1        0.0618
     37 H          -4.0369    2.5524    1.3672 H       1  UNL1        0.0235
     38 H          -5.0972    2.6712   -0.0499 H       1  UNL1        0.0235
     39 H          -4.6472    1.0814    0.5960 H       1  UNL1        0.0235
@<TRIPOS>BOND
     1     1     4    1
     2     1    13    1
     3     2    13    2
     4     3     7    1
     5     3     8    1
     6     3    10    1
     7     4     5    1
     8     4     6    1
     9     4     9    1
    10     5     7    1
    11     5    19    1
    12     5    20    1
    13     6     8    1
    14     6    21    1
    15     6    22    1
    16     7    23    1
    17     7    24    1
    18     8    25    1
    19     8    26    1
    20     9    11   ar
    21     9    12   ar
    22    10    27    1
    23    10    28    1
    24    10    29    1
    25    11    14   ar
    26    11    30    1
    27    12    15   ar
    28    12    31    1
    29    13    16    1
    30    14    17   ar
    31    14    32    1
    32    15    17   ar
    33    15    33    1
    34    16    18    1
    35    16    34    1
    36    16    35    1
    37    17    36    1
    38    18    37    1
    39    18    38    1
    40    18    39    1
@<TRIPOS>MOLECULE
68870
 54 56 0 0 0
SMALL
GASTEIGER

@<TRIPOS>ATOM
      1 CL         -6.5198    3.2282    0.1761 Cl      1  UNL1       -0.0835
      2 S          -3.0390   -0.3195   -1.7792 S.O2    1  UNL1        0.0748
      3 O          -2.8761    0.5552   -2.9275 O.2     1  UNL1       -0.1498
      4 O          -4.0791   -1.3329   -1.7679 O.2     1  UNL1       -0.1498
      5 O           9.7077    0.9651   -0.8519 O.3     1  UNL1       -0.4806
      6 O           8.8447   -0.1657    0.9182 O.2     1  UNL1       -0.2510
      7 N          -0.1641    0.8356    0.2578 N.3     1  UNL1       -0.3056
      8 N          -1.5273   -1.0782   -1.4690 N.pl3   1  UNL1       -0.2057
      9 C          -1.2861    0.2845    1.0317 C.3     1  UNL1        0.0621
     10 C          -2.6021    0.9734    0.7181 C.ar    1  UNL1        0.0007
     11 C          -1.3878   -1.2270    0.9599 C.ar    1  UNL1       -0.0035
     12 C          -3.3998    0.7691   -0.4195 C.ar    1  UNL1        0.1150
     13 C          -1.4888   -1.8883   -0.2722 C.ar    1  UNL1        0.0559
     14 C           1.0929    0.2962    0.7401 C.3     1  UNL1       -0.0033
     15 C           2.2622    0.8956   -0.0408 C.3     1  UNL1       -0.0404
     16 C           3.5998    0.3535    0.4687 C.3     1  UNL1       -0.0519
     17 C          -3.0576    1.9141    1.6699 C.ar    1  UNL1       -0.0535
     18 C           4.8103    0.9008   -0.2937 C.3     1  UNL1       -0.0525
     19 C          -1.4260   -1.9866    2.1404 C.ar    1  UNL1       -0.0549
     20 C          -4.6087    1.4726   -0.5776 C.ar    1  UNL1       -0.0164
     21 C          -1.6702   -3.2772   -0.3169 C.ar    1  UNL1       -0.0388
     22 C          -0.8262   -1.6333   -2.6591 C.3     1  UNL1        0.0235
     23 C           6.1787    0.4097    0.1873 C.3     1  UNL1       -0.0430
     24 C          -4.2561    2.6103    1.5072 C.ar    1  UNL1       -0.0430
     25 C          -1.5721   -3.3732    2.0915 C.ar    1  UNL1       -0.0613
     26 C          -5.0344    2.3866    0.3817 C.ar    1  UNL1        0.0429
     27 C          -1.6986   -4.0170    0.8640 C.ar    1  UNL1       -0.0599
     28 C           7.3433    0.9386   -0.6492 C.3     1  UNL1        0.0448
     29 C           8.6801    0.5097   -0.0881 C.2     1  UNL1        0.3047
     30 H          -1.0606    0.5193    2.0827 H       1  UNL1        0.0561
     31 H          -0.1535    1.8512    0.3541 H       1  UNL1        0.1228
     32 H           1.1402   -0.7918    0.6207 H       1  UNL1        0.0424
     33 H           1.2259    0.5224    1.8055 H       1  UNL1        0.0424
     34 H           2.2560    1.9888    0.0529 H       1  UNL1        0.0277
     35 H           2.1559    0.6615   -1.1077 H       1  UNL1        0.0277
     36 H           3.6012   -0.7411    0.3952 H       1  UNL1        0.0266
     37 H           3.7093    0.5991    1.5323 H       1  UNL1        0.0266
     38 H          -2.4722    2.1158    2.5654 H       1  UNL1        0.0622
     39 H           4.6987    0.6425   -1.3546 H       1  UNL1        0.0265
     40 H           4.7938    1.9969   -0.2399 H       1  UNL1        0.0265
     41 H          -1.3507   -1.5017    3.1107 H       1  UNL1        0.0621
     42 H          -5.2235    1.3064   -1.4608 H       1  UNL1        0.0652
     43 H          -1.7960   -3.7970   -1.2623 H       1  UNL1        0.0637
     44 H          -0.5936   -0.8242   -3.3582 H       1  UNL1        0.0446
     45 H          -1.4426   -2.3814   -3.1662 H       1  UNL1        0.0446
     46 H           0.1257   -2.0889   -2.3666 H       1  UNL1        0.0446
     47 H           6.1931   -0.6874    0.1747 H       1  UNL1        0.0270
     48 H           6.3122    0.7073    1.2352 H       1  UNL1        0.0270
     49 H          -4.5652    3.3202    2.2698 H       1  UNL1        0.0632
     50 H          -1.6004   -3.9485    3.0123 H       1  UNL1        0.0618
     51 H          -1.8295   -5.0944    0.8266 H       1  UNL1        0.0618
     52 H           7.2621    0.5630   -1.6749 H       1  UNL1        0.0377
     53 H           7.3195    2.0337   -0.6661 H       1  UNL1        0.0377
     54 H          10.5786    0.6879   -0.4956 H       1  UNL1        0.2951
@<TRIPOS>BOND
     1     1    26    1
     2     2     3    2
     3     2     4    2
     4     2     8    1
     5     2    12    1
     6     5    29    1
     7     5    54    1
     8     6    29    2
     9     7     9    1
    10     7    14    1
    11     7    31    1
    12     8    13    1
    13     8    22    1
    14     9    10    1
    15     9    11    1
    16     9    30    1
    17    10    12   ar
    18    10    17   ar
    19    11    13   ar
    20    11    19   ar
    21    12    20   ar
    22    13    21   ar
    23    14    15    1
    24    14    32    1
    25    14    33    1
    26    15    16    1
    27    15    34    1
    28    15    35    1
    29    16    18    1
    30    16    36    1
    31    16    37    1
    32    17    24   ar
    33    17    38    1
    34    18    23    1
    35    18    39    1
    36    18    40    1
    37    19    25   ar
    38    19    41    1
    39    20    26   ar
    40    20    42    1
    41    21    27   ar
    42    21    43    1
    43    22    44    1
    44    22    45    1
    45    22    46    1
    46    23    28    1
    47    23    47    1
    48    23    48    1
    49    24    26   ar
    50    24    49    1
    51    25    27   ar
    52    25    50    1
    53    27    51    1
    54    28    29    1
    55    28    52    1
    56    28    53    1
@<TRIPOS>MOLECULE
5462507
 45 49 0 0 0
SMALL
GASTEIGER

@<TRIPOS>ATOM
      1 O          -1.1221    0.9702    1.4191 O.3     1  UNL1       -0.4799
      2 O          -3.0521   -0.4395    0.3667 O.3     1  UNL1       -0.4536
      3 O          -1.3343    3.7243    0.5242 O.3     1  UNL1       -0.5033
      4 O          -4.1150   -2.1901   -0.7020 O.2     1  UNL1       -0.2511
      5 N           3.3556   -1.5334    0.3231 N.3     1  UNL1       -0.3015
      6 C           0.6581   -0.5700    0.7944 C.3     1  UNL1        0.0491
      7 C           0.9774   -1.6680   -0.2316 C.3     1  UNL1        0.0064
      8 C           2.4010   -1.3571   -0.7980 C.3     1  UNL1        0.0213
      9 C          -0.7994   -0.4595    1.2996 C.3     1  UNL1        0.1509
     10 C           1.6851   -0.6293    1.9423 C.3     1  UNL1       -0.0263
     11 C           0.7318    0.7530    0.1063 C.ar    1  UNL1        0.0116
     12 C           2.4765    0.0342   -1.5162 C.3     1  UNL1       -0.0110
     13 C           3.1385   -0.6093    1.4407 C.3     1  UNL1       -0.0001
     14 C           1.5940    1.0971   -0.9191 C.ar    1  UNL1       -0.0383
     15 C          -1.8423   -1.1918    0.4153 C.3     1  UNL1        0.1587
     16 C          -0.1035   -1.7831   -1.2760 C.2     1  UNL1       -0.0788
     17 C          -0.2655    1.5915    0.5510 C.ar    1  UNL1        0.1664
     18 C          -1.3890   -1.5446   -0.9764 C.2     1  UNL1       -0.0439
     19 C           4.7524   -1.5401   -0.0991 C.3     1  UNL1       -0.0124
     20 C           1.5039    2.3981   -1.4171 C.ar    1  UNL1       -0.0546
     21 C          -0.3687    2.8823    0.0811 C.ar    1  UNL1        0.1588
     22 C           0.5406    3.2895   -0.9036 C.ar    1  UNL1       -0.0162
     23 C          -4.1140   -1.0642   -0.2229 C.2     1  UNL1        0.3046
     24 C          -5.3091   -0.1601   -0.2018 C.3     1  UNL1        0.0333
     25 H           1.0142   -2.6467    0.2705 H       1  UNL1        0.0368
     26 H           2.6387   -2.1264   -1.5459 H       1  UNL1        0.0472
     27 H          -0.8864   -0.8639    2.3165 H       1  UNL1        0.0783
     28 H           1.5234   -1.5548    2.5114 H       1  UNL1        0.0287
     29 H           1.5431    0.1995    2.6480 H       1  UNL1        0.0287
     30 H           2.1429   -0.1150   -2.5521 H       1  UNL1        0.0329
     31 H           3.5057    0.4015   -1.5755 H       1  UNL1        0.0329
     32 H           3.4227    0.4138    1.1647 H       1  UNL1        0.0427
     33 H           3.7852   -0.8907    2.2812 H       1  UNL1        0.0427
     34 H          -2.0632   -2.1460    0.9161 H       1  UNL1        0.0817
     35 H           0.1663   -2.0892   -2.2821 H       1  UNL1        0.0574
     36 H          -2.1000   -1.6564   -1.7880 H       1  UNL1        0.0607
     37 H           5.1049   -0.5562   -0.4238 H       1  UNL1        0.0391
     38 H           4.9101   -2.2526   -0.9162 H       1  UNL1        0.0391
     39 H           5.3943   -1.8687    0.7261 H       1  UNL1        0.0391
     40 H           2.1565    2.7246   -2.2224 H       1  UNL1        0.0622
     41 H           0.4839    4.2968   -1.3099 H       1  UNL1        0.0655
     42 H          -1.8663    3.2560    1.1910 H       1  UNL1        0.2923
     43 H          -5.0901    0.7558   -0.7564 H       1  UNL1        0.0342
     44 H          -5.5807    0.0705    0.8314 H       1  UNL1        0.0342
     45 H          -6.1537   -0.6638   -0.6806 H       1  UNL1        0.0342
@<TRIPOS>BOND
     1     1     9    1
     2     1    17    1
     3     2    15    1
     4     2    23    1
     5     3    21    1
     6     3    42    1
     7     4    23    2
     8     5     8    1
     9     5    13    1
    10     5    19    1
    11     6     7    1
    12     6     9    1
    13     6    10    1
    14     6    11    1
    15     7     8    1
    16     7    16    1
    17     7    25    1
    18     8    12    1
    19     8    26    1
    20     9    15    1
    21     9    27    1
    22    10    13    1
    23    10    28    1
    24    10    29    1
    25    11    14   ar
    26    11    17   ar
    27    12    14    1
    28    12    30    1
    29    12    31    1
    30    13    32    1
    31    13    33    1
    32    14    20   ar
    33    15    18    1
    34    15    34    1
    35    16    18    2
    36    16    35    1
    37    17    21   ar
    38    18    36    1
    39    19    37    1
    40    19    38    1
    41    19    39    1
    42    20    22   ar
    43    20    40    1
    44    21    22   ar
    45    22    41    1
    46    23    24    1
    47    24    43    1
    48    24    44    1
    49    24    45    1
@<TRIPOS>MOLECULE
71719125
 43 44 0 0 0
SMALL
GASTEIGER

@<TRIPOS>ATOM
      1 CL          4.3565    2.4184    0.3814 Cl      1  UNL1       -0.0820
      2 CL          6.1231   -0.2203   -0.2397 Cl      1  UNL1       -0.0820
      3 O          -0.2268   -0.8075    1.5616 O.2     1  UNL1       -0.2700
      4 N          -2.3230    1.8685   -0.2498 N.3     1  UNL1       -0.3037
      5 N          -0.6284   -0.4778   -0.7180 N.am    1  UNL1       -0.2960
      6 C          -2.6494    0.5376    0.2706 C.3     1  UNL1        0.0284
      7 C          -2.0712   -0.5592   -0.6454 C.3     1  UNL1        0.0415
      8 C          -4.1713    0.3984    0.4145 C.3     1  UNL1       -0.0356
      9 C          -2.4886   -1.9547   -0.1653 C.3     1  UNL1       -0.0328
     10 C          -4.5660   -0.9960    0.8933 C.3     1  UNL1       -0.0515
     11 C          -4.0017   -2.0792   -0.0192 C.3     1  UNL1       -0.0513
     12 C          -3.2456    2.2332   -1.3222 C.3     1  UNL1       -0.0127
     13 C          -2.3661    2.8570    0.8248 C.3     1  UNL1       -0.0127
     14 C          -0.0674   -0.2463   -2.0505 C.3     1  UNL1        0.0038
     15 C           0.1826   -0.6123    0.4177 C.2     1  UNL1        0.2467
     16 C           1.6412   -0.4995    0.2585 C.ar    1  UNL1        0.0384
     17 C           2.2621    0.7442    0.3749 C.ar    1  UNL1       -0.0298
     18 C           2.4030   -1.6370   -0.0088 C.ar    1  UNL1       -0.0482
     19 C           3.6448    0.8504    0.2242 C.ar    1  UNL1        0.0600
     20 C           3.7856   -1.5308   -0.1596 C.ar    1  UNL1       -0.0413
     21 C           4.4065   -0.2872   -0.0430 C.ar    1  UNL1        0.0593
     22 H          -2.2191    0.4234    1.2722 H       1  UNL1        0.0480
     23 H          -2.4718   -0.4474   -1.6610 H       1  UNL1        0.0516
     24 H          -4.5782    1.1302    1.1213 H       1  UNL1        0.0281
     25 H          -4.7048    0.5259   -0.5341 H       1  UNL1        0.0281
     26 H          -2.0350   -2.2051    0.7997 H       1  UNL1        0.0284
     27 H          -2.1298   -2.7122   -0.8736 H       1  UNL1        0.0284
     28 H          -5.6581   -1.0795    0.9321 H       1  UNL1        0.0266
     29 H          -4.1981   -1.1493    1.9154 H       1  UNL1        0.0266
     30 H          -4.2536   -3.0674    0.3819 H       1  UNL1        0.0266
     31 H          -4.4715   -2.0074   -1.0078 H       1  UNL1        0.0266
     32 H          -2.8403    3.1151   -1.8351 H       1  UNL1        0.0391
     33 H          -3.3313    1.4712   -2.1033 H       1  UNL1        0.0391
     34 H          -4.2447    2.5273   -0.9795 H       1  UNL1        0.0391
     35 H          -3.3562    2.9702    1.2784 H       1  UNL1        0.0391
     36 H          -2.0626    3.8384    0.4420 H       1  UNL1        0.0391
     37 H          -1.6498    2.6040    1.6149 H       1  UNL1        0.0391
     38 H          -0.3790   -1.0689   -2.7019 H       1  UNL1        0.0429
     39 H           1.0200   -0.1856   -2.0736 H       1  UNL1        0.0429
     40 H          -0.4713    0.6935   -2.4393 H       1  UNL1        0.0429
     41 H           1.6613    1.6271    0.5831 H       1  UNL1        0.0640
     42 H           1.9288   -2.6106   -0.1018 H       1  UNL1        0.0625
     43 H           4.3638   -2.4276   -0.3678 H       1  UNL1        0.0633
@<TRIPOS>BOND
     1     1    19    1
     2     2    21    1
     3     3    15    2
     4     4     6    1
     5     4    12    1
     6     4    13    1
     7     5     7    1
     8     5    14    1
     9     5    15   am
    10     6     7    1
    11     6     8    1
    12     6    22    1
    13     7     9    1
    14     7    23    1
    15     8    10    1
    16     8    24    1
    17     8    25    1
    18     9    11    1
    19     9    26    1
    20     9    27    1
    21    10    11    1
    22    10    28    1
    23    10    29    1
    24    11    30    1
    25    11    31    1
    26    12    32    1
    27    12    33    1
    28    12    34    1
    29    13    35    1
    30    13    36    1
    31    13    37    1
    32    14    38    1
    33    14    39    1
    34    14    40    1
    35    15    16    1
    36    16    17   ar
    37    16    18   ar
    38    17    19   ar
    39    17    41    1
    40    18    20   ar
    41    18    42    1
    42    19    21   ar
    43    20    21   ar
    44    20    43    1
