@<TRIPOS>MOLECULE
5284570
 40 44 0 0 0
SMALL
GASTEIGER

@<TRIPOS>ATOM
      1 O          -1.9776   -0.4511    1.2518 O.3     1  UNL1       -0.4765
      2 O          -2.6189   -2.5568   -0.3366 O.2     1  UNL1       -0.2934
      3 O          -3.6587    1.8272    0.5391 O.3     1  UNL1       -0.5033
      4 N           3.1415    0.1445    0.4790 N.3     1  UNL1       -0.3018
      5 C           0.3589   -0.6703    0.6638 C.3     1  UNL1        0.0488
      6 C           1.3411   -1.2844   -0.3401 C.3     1  UNL1       -0.0111
      7 C           2.3486   -0.1614   -0.7366 C.3     1  UNL1        0.0179
      8 C          -0.9329   -1.4379    0.9850 C.3     1  UNL1        0.1677
      9 C           1.1445   -0.2635    1.9289 C.3     1  UNL1       -0.0263
     10 C          -0.2871    0.5300    0.0681 C.ar    1  UNL1        0.0116
     11 C           0.6319   -1.9473   -1.5276 C.3     1  UNL1       -0.0410
     12 C           1.6452    1.0773   -1.3957 C.3     1  UNL1       -0.0113
     13 C           2.3477    0.6415    1.6077 C.3     1  UNL1       -0.0002
     14 C           0.2860    1.4036   -0.8356 C.ar    1  UNL1       -0.0383
     15 C          -0.3701   -2.9819   -1.0280 C.3     1  UNL1        0.0099
     16 C          -1.4219   -2.3260   -0.1620 C.2     1  UNL1        0.1744
     17 C          -1.5951    0.6323    0.4959 C.ar    1  UNL1        0.1668
     18 C           4.2962    0.9982    0.2213 C.3     1  UNL1       -0.0125
     19 C          -0.4937    2.4862   -1.2430 C.ar    1  UNL1       -0.0546
     20 C          -2.3770    1.6994    0.1178 C.ar    1  UNL1        0.1588
     21 C          -1.8089    2.6402   -0.7533 C.ar    1  UNL1       -0.0162
     22 H           1.9004   -2.0890    0.1625 H       1  UNL1        0.0326
     23 H           3.0422   -0.5820   -1.4772 H       1  UNL1        0.0469
     24 H          -0.8191   -2.0773    1.8679 H       1  UNL1        0.0823
     25 H           1.5091   -1.1722    2.4267 H       1  UNL1        0.0287
     26 H           0.5004    0.2502    2.6545 H       1  UNL1        0.0287
     27 H           1.3731   -2.4389   -2.1686 H       1  UNL1        0.0273
     28 H           0.1151   -1.2092   -2.1511 H       1  UNL1        0.0273
     29 H           1.5069    0.8468   -2.4606 H       1  UNL1        0.0329
     30 H           2.2822    1.9663   -1.3553 H       1  UNL1        0.0329
     31 H           2.0014    1.6655    1.4207 H       1  UNL1        0.0427
     32 H           2.9771    0.6902    2.5053 H       1  UNL1        0.0427
     33 H           0.1218   -3.7656   -0.4421 H       1  UNL1        0.0343
     34 H          -0.8637   -3.4571   -1.8826 H       1  UNL1        0.0343
     35 H           4.9520    1.0211    1.0990 H       1  UNL1        0.0391
     36 H           4.0186    2.0305   -0.0141 H       1  UNL1        0.0391
     37 H           4.8978    0.6032   -0.6046 H       1  UNL1        0.0391
     38 H          -0.1024    3.2082   -1.9546 H       1  UNL1        0.0622
     39 H          -2.3979    3.4915   -1.0872 H       1  UNL1        0.0655
     40 H          -3.8656    1.0762    1.1223 H       1  UNL1        0.2923
@<TRIPOS>BOND
     1     1     8    1
     2     1    17    1
     3     2    16    2
     4     3    20    1
     5     3    40    1
     6     4     7    1
     7     4    13    1
     8     4    18    1
     9     5     6    1
    10     5     8    1
    11     5     9    1
    12     5    10    1
    13     6     7    1
    14     6    11    1
    15     6    22    1
    16     7    12    1
    17     7    23    1
    18     8    16    1
    19     8    24    1
    20     9    13    1
    21     9    25    1
    22     9    26    1
    23    10    14   ar
    24    10    17   ar
    25    11    15    1
    26    11    27    1
    27    11    28    1
    28    12    14    1
    29    12    29    1
    30    12    30    1
    31    13    31    1
    32    13    32    1
    33    14    19   ar
    34    15    16    1
    35    15    33    1
    36    15    34    1
    37    17    20   ar
    38    18    35    1
    39    18    36    1
    40    18    37    1
    41    19    21   ar
    42    19    38    1
    43    20    21   ar
    44    21    39    1
@<TRIPOS>MOLECULE
16217588
 40 44 0 0 0
SMALL
GASTEIGER

@<TRIPOS>ATOM
      1 O          -1.9776   -0.4511    1.2518 O.3     1  UNL1       -0.4765
      2 O          -2.6189   -2.5568   -0.3366 O.2     1  UNL1       -0.2934
      3 O          -3.6587    1.8272    0.5391 O.3     1  UNL1       -0.5033
      4 N           3.1415    0.1445    0.4790 N.3     1  UNL1       -0.3018
      5 C           0.3589   -0.6703    0.6638 C.3     1  UNL1        0.0488
      6 C           1.3411   -1.2844   -0.3401 C.3     1  UNL1       -0.0111
      7 C           2.3486   -0.1614   -0.7366 C.3     1  UNL1        0.0179
      8 C          -0.9329   -1.4379    0.9850 C.3     1  UNL1        0.1677
      9 C           1.1445   -0.2635    1.9289 C.3     1  UNL1       -0.0263
     10 C          -0.2871    0.5300    0.0681 C.ar    1  UNL1        0.0116
     11 C           0.6319   -1.9473   -1.5276 C.3     1  UNL1       -0.0410
     12 C           1.6452    1.0773   -1.3957 C.3     1  UNL1       -0.0113
     13 C           2.3477    0.6415    1.6077 C.3     1  UNL1       -0.0002
     14 C           0.2860    1.4036   -0.8356 C.ar    1  UNL1       -0.0383
     15 C          -0.3701   -2.9819   -1.0280 C.3     1  UNL1        0.0099
     16 C          -1.4219   -2.3260   -0.1620 C.2     1  UNL1        0.1744
     17 C          -1.5951    0.6323    0.4959 C.ar    1  UNL1        0.1668
     18 C           4.2962    0.9982    0.2213 C.3     1  UNL1       -0.0125
     19 C          -0.4937    2.4862   -1.2430 C.ar    1  UNL1       -0.0546
     20 C          -2.3770    1.6994    0.1178 C.ar    1  UNL1        0.1588
     21 C          -1.8089    2.6402   -0.7533 C.ar    1  UNL1       -0.0162
     22 H           1.9004   -2.0890    0.1625 H       1  UNL1        0.0326
     23 H           3.0422   -0.5820   -1.4772 H       1  UNL1        0.0469
     24 H          -0.8191   -2.0773    1.8679 H       1  UNL1        0.0823
     25 H           1.5091   -1.1723    2.4266 H       1  UNL1        0.0287
     26 H           0.5004    0.2502    2.6545 H       1  UNL1        0.0287
     27 H           1.3731   -2.4389   -2.1686 H       1  UNL1        0.0273
     28 H           0.1151   -1.2092   -2.1511 H       1  UNL1        0.0273
     29 H           1.5069    0.8468   -2.4606 H       1  UNL1        0.0329
     30 H           2.2822    1.9663   -1.3553 H       1  UNL1        0.0329
     31 H           2.0014    1.6655    1.4207 H       1  UNL1        0.0427
     32 H           2.9771    0.6902    2.5053 H       1  UNL1        0.0427
     33 H           0.1217   -3.7655   -0.4421 H       1  UNL1        0.0343
     34 H          -0.8638   -3.4571   -1.8825 H       1  UNL1        0.0343
     35 H           4.8978    0.6032   -0.6046 H       1  UNL1        0.0391
     36 H           4.9520    1.0211    1.0990 H       1  UNL1        0.0391
     37 H           4.0186    2.0305   -0.0141 H       1  UNL1        0.0391
     38 H          -0.1023    3.2082   -1.9546 H       1  UNL1        0.0622
     39 H          -2.3928    3.4939   -1.0906 H       1  UNL1        0.0655
     40 H          -4.0359    2.6375    0.1553 H       1  UNL1        0.2923
@<TRIPOS>BOND
     1     1     8    1
     2     1    17    1
     3     2    16    2
     4     3    20    1
     5     3    40    1
     6     4     7    1
     7     4    13    1
     8     4    18    1
     9     5     6    1
    10     5     8    1
    11     5     9    1
    12     5    10    1
    13     6     7    1
    14     6    11    1
    15     6    22    1
    16     7    12    1
    17     7    23    1
    18     8    16    1
    19     8    24    1
    20     9    13    1
    21     9    25    1
    22     9    26    1
    23    10    14   ar
    24    10    17   ar
    25    11    15    1
    26    11    27    1
    27    11    28    1
    28    12    14    1
    29    12    29    1
    30    12    30    1
    31    13    31    1
    32    13    32    1
    33    14    19   ar
    34    15    16    1
    35    15    33    1
    36    15    34    1
    37    17    20   ar
    38    18    35    1
    39    18    36    1
    40    18    37    1
    41    19    21   ar
    42    19    38    1
    43    20    21   ar
    44    21    39    1
@<TRIPOS>MOLECULE
10479418
 60 65 0 0 0
SMALL
GASTEIGER

@<TRIPOS>ATOM
      1 O           0.7233   -1.2289    1.2782 O.3     1  UNL1       -0.4765
      2 O           2.0978   -3.5686    1.3485 O.2     1  UNL1       -0.2934
      3 O          -1.4932   -1.4817   -0.6053 O.3     1  UNL1       -0.4571
      4 O          -2.6429    0.4280    0.0833 O.3     1  UNL1       -0.3221
      5 O          -3.9543   -2.7036   -1.2646 O.3     1  UNL1       -0.3829
      6 O          -6.1901   -1.6293    0.3230 O.3     1  UNL1       -0.3863
      7 O          -6.2003    1.2735    0.1747 O.3     1  UNL1       -0.3860
      8 O          -4.5338    3.2894    0.8338 O.3     1  UNL1       -0.4788
      9 O          -2.5214    2.5053    1.5629 O.2     1  UNL1       -0.2480
     10 N           4.3703    2.2919    0.0702 N.3     1  UNL1       -0.3018
     11 C           2.7616   -0.0007    0.8429 C.3     1  UNL1        0.0488
     12 C           4.2190   -0.1231    0.3840 C.3     1  UNL1       -0.0111
     13 C           4.4630    1.0064   -0.6639 C.3     1  UNL1        0.0179
     14 C           2.1416   -1.1681    1.6263 C.3     1  UNL1        0.1677
     15 C           2.5864    1.3583    1.5544 C.3     1  UNL1       -0.0263
     16 C           1.8543   -0.0701   -0.3339 C.ar    1  UNL1        0.0116
     17 C           4.5632   -1.5330   -0.1126 C.3     1  UNL1       -0.0410
     18 C           3.5180    0.8884   -1.9116 C.3     1  UNL1       -0.0113
     19 C           3.0646    2.5394    0.6908 C.3     1  UNL1       -0.0002
     20 C           2.1318    0.3845   -1.6085 C.ar    1  UNL1       -0.0383
     21 C           4.2316   -2.5622    0.9620 C.3     1  UNL1        0.0099
     22 C           0.6853   -0.7228    0.0001 C.ar    1  UNL1        0.1672
     23 C           2.7559   -2.5293    1.2899 C.2     1  UNL1        0.1744
     24 C           4.8174    3.4410   -0.7097 C.3     1  UNL1       -0.0125
     25 C           1.1199    0.2457   -2.5586 C.ar    1  UNL1       -0.0546
     26 C          -0.3313   -0.8582   -0.9173 C.ar    1  UNL1        0.1657
     27 C          -0.1086   -0.3550   -2.2073 C.ar    1  UNL1       -0.0159
     28 C          -2.6977   -0.7295   -0.7467 C.3     1  UNL1        0.2314
     29 C          -3.8649   -1.6262   -0.3325 C.3     1  UNL1        0.1455
     30 C          -5.1829   -0.8513   -0.3255 C.3     1  UNL1        0.1157
     31 C          -5.0481    0.4716    0.4293 C.3     1  UNL1        0.1202
     32 C          -3.8111    1.2325   -0.0311 C.3     1  UNL1        0.1869
     33 C          -3.5242    2.3860    0.8747 C.2     1  UNL1        0.3367
     34 H           4.8764    0.0592    1.2485 H       1  UNL1        0.0326
     35 H           5.4973    0.9121   -1.0209 H       1  UNL1        0.0469
     36 H           2.2323   -1.0271    2.7094 H       1  UNL1        0.0823
     37 H           3.1650    1.3462    2.4880 H       1  UNL1        0.0287
     38 H           1.5406    1.5307    1.8400 H       1  UNL1        0.0287
     39 H           5.6322   -1.5867   -0.3499 H       1  UNL1        0.0273
     40 H           4.0227   -1.7789   -1.0334 H       1  UNL1        0.0273
     41 H           3.9772    0.1690   -2.6029 H       1  UNL1        0.0329
     42 H           3.4536    1.8364   -2.4546 H       1  UNL1        0.0329
     43 H           2.3086    2.7722   -0.0694 H       1  UNL1        0.0427
     44 H           3.1284    3.4221    1.3395 H       1  UNL1        0.0427
     45 H           4.7953   -2.3762    1.8824 H       1  UNL1        0.0343
     46 H           4.4904   -3.5641    0.6028 H       1  UNL1        0.0343
     47 H           4.9228    4.3187   -0.0620 H       1  UNL1        0.0391
     48 H           4.1256    3.7035   -1.5162 H       1  UNL1        0.0391
     49 H           5.8055    3.2572   -1.1454 H       1  UNL1        0.0391
     50 H           1.2772    0.5776   -3.5813 H       1  UNL1        0.0622
     51 H          -0.8673   -0.4611   -2.9791 H       1  UNL1        0.0655
     52 H          -2.8176   -0.4335   -1.7974 H       1  UNL1        0.1084
     53 H          -3.6756   -2.0684    0.6535 H       1  UNL1        0.0683
     54 H          -5.5332   -0.6832   -1.3515 H       1  UNL1        0.0648
     55 H          -5.0157    0.2739    1.5087 H       1  UNL1        0.0652
     56 H          -3.8999    1.6158   -1.0552 H       1  UNL1        0.0742
     57 H          -4.7148   -3.2507   -1.0036 H       1  UNL1        0.2102
     58 H          -7.0096   -1.1055    0.3200 H       1  UNL1        0.2100
     59 H          -6.1612    2.0462    0.7628 H       1  UNL1        0.2100
     60 H          -4.3653    4.0544    1.4243 H       1  UNL1        0.2951
@<TRIPOS>BOND
     1     1    14    1
     2     1    22    1
     3     2    23    2
     4     3    26    1
     5     3    28    1
     6     4    28    1
     7     4    32    1
     8     5    29    1
     9     5    57    1
    10     6    30    1
    11     6    58    1
    12     7    31    1
    13     7    59    1
    14     8    33    1
    15     8    60    1
    16     9    33    2
    17    10    13    1
    18    10    19    1
    19    10    24    1
    20    11    12    1
    21    11    14    1
    22    11    15    1
    23    11    16    1
    24    12    13    1
    25    12    17    1
    26    12    34    1
    27    13    18    1
    28    13    35    1
    29    14    23    1
    30    14    36    1
    31    15    19    1
    32    15    37    1
    33    15    38    1
    34    16    20   ar
    35    16    22   ar
    36    17    21    1
    37    17    39    1
    38    17    40    1
    39    18    20    1
    40    18    41    1
    41    18    42    1
    42    19    43    1
    43    19    44    1
    44    20    25   ar
    45    21    23    1
    46    21    45    1
    47    21    46    1
    48    22    26   ar
    49    24    47    1
    50    24    48    1
    51    24    49    1
    52    25    27   ar
    53    25    50    1
    54    26    27   ar
    55    27    51    1
    56    28    29    1
    57    28    52    1
    58    29    30    1
    59    29    53    1
    60    30    31    1
    61    30    54    1
    62    31    32    1
    63    31    55    1
    64    32    33    1
    65    32    56    1
@<TRIPOS>MOLECULE
21128865
 41 45 0 0 0
SMALL
GASTEIGER

@<TRIPOS>ATOM
      1 O           2.0672    0.5594    1.2956 O.3     1  UNL1       -0.4765
      2 O          -3.7953    0.7039    0.6998 O.co2   1  UNL1       -0.7753
      3 O           2.6629    2.6688   -0.3058 O.2     1  UNL1       -0.2934
      4 O           3.9030   -1.6299    0.6960 O.3     1  UNL1       -0.5033
      5 N          -3.0195   -0.3838    0.3359 N.3     1  UNL1        0.2176
      6 C          -0.2499    0.6372    0.6023 C.3     1  UNL1        0.0561
      7 C          -1.2155    1.1829   -0.4547 C.3     1  UNL1        0.0164
      8 C          -2.1360   -0.0031   -0.8773 C.3     1  UNL1       -0.0140
      9 C          -1.0592    0.2110    1.8485 C.3     1  UNL1        0.0014
     10 C           0.9831    1.4821    0.9639 C.3     1  UNL1        0.1680
     11 C           0.4886   -0.5319    0.0555 C.ar    1  UNL1        0.0121
     12 C          -0.4953    1.8696   -1.6215 C.3     1  UNL1       -0.0373
     13 C          -2.1685   -0.7953    1.5219 C.3     1  UNL1       -0.0317
     14 C          -1.3352   -1.1976   -1.4958 C.3     1  UNL1        0.0161
     15 C           0.0091   -1.4449   -0.8631 C.ar    1  UNL1       -0.0345
     16 C           0.4262    2.9644   -1.0965 C.3     1  UNL1        0.0101
     17 C           1.4732    2.3778   -0.1768 C.2     1  UNL1        0.1744
     18 C           1.7795   -0.5549    0.5427 C.ar    1  UNL1        0.1668
     19 C          -3.9845   -1.4873    0.0006 C.3     1  UNL1       -0.0436
     20 C           0.8661   -2.4863   -1.2196 C.ar    1  UNL1       -0.0544
     21 C           2.6368   -1.5804    0.2157 C.ar    1  UNL1        0.1588
     22 C           2.1632   -2.5616   -0.6673 C.ar    1  UNL1       -0.0162
     23 H          -1.8281    1.9649    0.0153 H       1  UNL1        0.0366
     24 H          -2.8657    0.3477   -1.6194 H       1  UNL1        0.0856
     25 H          -1.5111    1.1048    2.2982 H       1  UNL1        0.0327
     26 H          -0.4088   -0.2249    2.6178 H       1  UNL1        0.0327
     27 H           0.7950    2.1288    1.8287 H       1  UNL1        0.0823
     28 H          -1.2354    2.3104   -2.2996 H       1  UNL1        0.0274
     29 H           0.0882    1.1546   -2.2120 H       1  UNL1        0.0274
     30 H          -1.7568   -1.7830    1.2910 H       1  UNL1        0.0814
     31 H          -2.8539   -0.9012    2.3711 H       1  UNL1        0.0814
     32 H          -1.1482   -0.9537   -2.5501 H       1  UNL1        0.0368
     33 H          -1.9118   -2.1251   -1.4909 H       1  UNL1        0.0368
     34 H          -0.1321    3.7276   -0.5441 H       1  UNL1        0.0343
     35 H           0.9298    3.4546   -1.9366 H       1  UNL1        0.0343
     36 H          -4.5050   -1.2066   -0.9186 H       1  UNL1        0.0777
     37 H          -3.4396   -2.4252   -0.1119 H       1  UNL1        0.0777
     38 H          -4.6923   -1.5658    0.8317 H       1  UNL1        0.0777
     39 H           0.5499   -3.2358   -1.9402 H       1  UNL1        0.0622
     40 H           2.8090   -3.3844   -0.9661 H       1  UNL1        0.0655
     41 H           4.3424   -2.4218    0.3412 H       1  UNL1        0.2923
@<TRIPOS>UNITY_ATOM_ATTR
2 1
charge -1
5 1
charge 1
@<TRIPOS>BOND
     1     1    10    1
     2     1    18    1
     3     2     5    1
     4     3    17    2
     5     4    21    1
     6     4    41    1
     7     5     8    1
     8     5    13    1
     9     5    19    1
    10     6     7    1
    11     6     9    1
    12     6    10    1
    13     6    11    1
    14     7     8    1
    15     7    12    1
    16     7    23    1
    17     8    14    1
    18     8    24    1
    19     9    13    1
    20     9    25    1
    21     9    26    1
    22    10    17    1
    23    10    27    1
    24    11    15   ar
    25    11    18   ar
    26    12    16    1
    27    12    28    1
    28    12    29    1
    29    13    30    1
    30    13    31    1
    31    14    15    1
    32    14    32    1
    33    14    33    1
    34    15    20   ar
    35    16    17    1
    36    16    34    1
    37    16    35    1
    38    18    21   ar
    39    19    36    1
    40    19    37    1
    41    19    38    1
    42    20    22   ar
    43    20    39    1
    44    21    22   ar
    45    22    40    1
@<TRIPOS>MOLECULE
632118
 52 56 0 0 0
SMALL
GASTEIGER

@<TRIPOS>ATOM
      1 SI         -4.6990    0.4132    0.1097 Si      1  UNL1        0.0000
      2 O          -0.6295   -1.3502    1.2249 O.3     1  UNL1        0.0000
      3 O          -0.2498   -3.5491   -0.3207 O.2     1  UNL1        0.0000
      4 O          -3.1153   -0.0425    0.4278 O.3     1  UNL1        0.0000
      5 N           3.7388    1.4031    0.5223 N.3     1  UNL1        0.0000
      6 C           1.5840   -0.5392    0.6813 C.3     1  UNL1        0.0000
      7 C           2.7610   -0.6795   -0.2905 C.3     1  UNL1        0.0000
      8 C           3.1896    0.7640   -0.6982 C.3     1  UNL1        0.0000
      9 C           0.7470   -1.7876    1.0002 C.3     1  UNL1        0.0000
     10 C           2.0815    0.1885    1.9488 C.3     1  UNL1        0.0000
     11 C           0.4958    0.2509    0.0452 C.ar    1  UNL1        0.0000
     12 C           2.4416   -1.6032   -1.4726 C.3     1  UNL1        0.0000
     13 C           2.0346    1.5625   -1.3996 C.3     1  UNL1        0.0000
     14 C           2.7791    1.5220    1.6250 C.3     1  UNL1        0.0000
     15 C           0.6549    1.2729   -0.8704 C.ar    1  UNL1        0.0000
     16 C           1.9770   -2.9631   -0.9640 C.3     1  UNL1        0.0000
     17 C           0.7227   -2.8175   -0.1321 C.2     1  UNL1        0.0000
     18 C          -0.7370   -0.2201    0.4487 C.ar    1  UNL1        0.0000
     19 C           4.4134    2.6704    0.2625 C.3     1  UNL1        0.0000
     20 C          -0.5073    1.9016   -1.3175 C.ar    1  UNL1        0.0000
     21 C          -1.8952    0.3941    0.0311 C.ar    1  UNL1        0.0000
     22 C          -1.7707    1.4750   -0.8537 C.ar    1  UNL1        0.0000
     23 C          -5.8908   -0.7017    1.0581 C.3     1  UNL1        0.0000
     24 C          -5.0229    2.1838    0.6528 C.3     1  UNL1        0.0000
     25 C          -5.1034    0.2516   -1.7190 C.3     1  UNL1        0.0000
     26 H           3.6015   -1.1526    0.2412 H       1  UNL1        0.0000
     27 H           4.0158    0.6760   -1.4165 H       1  UNL1        0.0000
     28 H           1.1047   -2.3000    1.9006 H       1  UNL1        0.0000
     29 H           2.7922   -0.4631    2.4750 H       1  UNL1        0.0000
     30 H           1.2597    0.3815    2.6505 H       1  UNL1        0.0000
     31 H           3.3391   -1.7327   -2.0889 H       1  UNL1        0.0000
     32 H           1.6715   -1.1734   -2.1228 H       1  UNL1        0.0000
     33 H           2.0378    1.2784   -2.4605 H       1  UNL1        0.0000
     34 H           2.2202    2.6407   -1.3709 H       1  UNL1        0.0000
     35 H           2.0266    2.2901    1.4068 H       1  UNL1        0.0000
     36 H           3.3012    1.8537    2.5313 H       1  UNL1        0.0000
     37 H           2.7455   -3.4454   -0.3506 H       1  UNL1        0.0000
     38 H           1.7613   -3.6188   -1.8144 H       1  UNL1        0.0000
     39 H           3.7206    3.4751   -0.0032 H       1  UNL1        0.0000
     40 H           5.1480    2.5642   -0.5432 H       1  UNL1        0.0000
     41 H           4.9710    2.9900    1.1501 H       1  UNL1        0.0000
     42 H          -0.4502    2.7113   -2.0400 H       1  UNL1        0.0000
     43 H          -2.6343    2.0066   -1.2397 H       1  UNL1        0.0000
     44 H          -6.9270   -0.4137    0.8583 H       1  UNL1        0.0000
     45 H          -5.7568   -1.7452    0.7586 H       1  UNL1        0.0000
     46 H          -5.7106   -0.6244    2.1342 H       1  UNL1        0.0000
     47 H          -6.0779    2.4386    0.5139 H       1  UNL1        0.0000
     48 H          -4.7774    2.3094    1.7115 H       1  UNL1        0.0000
     49 H          -4.4245    2.8938    0.0758 H       1  UNL1        0.0000
     50 H          -6.1589    0.4775   -1.8981 H       1  UNL1        0.0000
     51 H          -4.5032    0.9382   -2.3218 H       1  UNL1        0.0000
     52 H          -4.9085   -0.7680   -2.0646 H       1  UNL1        0.0000
@<TRIPOS>BOND
     1     1     4    1
     2     1    23    1
     3     1    24    1
     4     1    25    1
     5     2     9    1
     6     2    18    1
     7     3    17    2
     8     4    21    1
     9     5     8    1
    10     5    14    1
    11     5    19    1
    12     6     7    1
    13     6     9    1
    14     6    10    1
    15     6    11    1
    16     7     8    1
    17     7    12    1
    18     7    26    1
    19     8    13    1
    20     8    27    1
    21     9    17    1
    22     9    28    1
    23    10    14    1
    24    10    29    1
    25    10    30    1
    26    11    15   ar
    27    11    18   ar
    28    12    16    1
    29    12    31    1
    30    12    32    1
    31    13    15    1
    32    13    33    1
    33    13    34    1
    34    14    35    1
    35    14    36    1
    36    15    20   ar
    37    16    17    1
    38    16    37    1
    39    16    38    1
    40    18    21   ar
    41    19    39    1
    42    19    40    1
    43    19    41    1
    44    20    22   ar
    45    20    42    1
    46    21    22   ar
    47    22    43    1
    48    23    44    1
    49    23    45    1
    50    23    46    1
    51    24    47    1
    52    24    48    1
    53    24    49    1
    54    25    50    1
    55    25    51    1
    56    25    52    1
@<TRIPOS>MOLECULE
14394783
 61 65 0 0 0
SMALL
GASTEIGER

@<TRIPOS>ATOM
      1 SI         -3.7913   -0.2169    0.7727 Si      1  UNL1        0.0000
      2 O          -0.1056   -1.0956    1.4100 O.3     1  UNL1        0.0000
      3 O          -0.3722   -3.0889   -0.4117 O.2     1  UNL1        0.0000
      4 O          -2.4382    0.6541    1.2503 O.3     1  UNL1        0.0000
      5 N           4.4396    1.2009    0.1856 N.3     1  UNL1        0.0000
      6 C           2.0862   -0.5436    0.5474 C.3     1  UNL1        0.0000
      7 C           3.0352   -0.7138   -0.6412 C.3     1  UNL1        0.0000
      8 C           3.6268    0.6941   -0.9520 C.3     1  UNL1        0.0000
      9 C           1.1191   -1.6909    0.8777 C.3     1  UNL1        0.0000
     10 C           2.9149   -0.0836    1.7663 C.3     1  UNL1        0.0000
     11 C           1.0523    0.4768    0.2240 C.ar    1  UNL1        0.0000
     12 C           2.3618   -1.3950   -1.8400 C.3     1  UNL1        0.0000
     13 C           2.5248    1.7496   -1.3223 C.3     1  UNL1        0.0000
     14 C           3.7269    1.1914    1.4730 C.3     1  UNL1        0.0000
     15 C           1.2218    1.5848   -0.5847 C.ar    1  UNL1        0.0000
     16 C           1.7688   -2.7333   -1.4141 C.3     1  UNL1        0.0000
     17 C          -0.1543    0.1357    0.7994 C.ar    1  UNL1        0.0000
     18 C           0.7249   -2.5342   -0.3380 C.2     1  UNL1        0.0000
     19 C           5.7323    0.5240    0.2907 C.3     1  UNL1        0.0000
     20 C           0.1222    2.4304   -0.7293 C.ar    1  UNL1        0.0000
     21 C          -1.2479    0.9623    0.6808 C.ar    1  UNL1        0.0000
     22 C          -1.0972    2.1279   -0.0851 C.ar    1  UNL1        0.0000
     23 C          -4.5507    0.5016   -0.7898 C.3     1  UNL1        0.0000
     24 C          -3.3071   -2.0032    0.4022 C.3     1  UNL1        0.0000
     25 C          -5.0954   -0.2502    2.1263 C.3     1  UNL1        0.0000
     26 C          -5.7987   -0.3121   -1.1985 C.3     1  UNL1        0.0000
     27 C          -4.9703    1.9695   -0.5526 C.3     1  UNL1        0.0000
     28 C          -3.5286    0.4582   -1.9472 C.3     1  UNL1        0.0000
     29 H           3.8503   -1.3880   -0.3446 H       1  UNL1        0.0000
     30 H           4.2857    0.6241   -1.8279 H       1  UNL1        0.0000
     31 H           1.5349   -2.3724    1.6285 H       1  UNL1        0.0000
     32 H           3.6025   -0.8887    2.0566 H       1  UNL1        0.0000
     33 H           2.2722    0.1033    2.6364 H       1  UNL1        0.0000
     34 H           3.1032   -1.5609   -2.6304 H       1  UNL1        0.0000
     35 H           1.5748   -0.7669   -2.2719 H       1  UNL1        0.0000
     36 H           2.3084    1.6443   -2.3937 H       1  UNL1        0.0000
     37 H           2.9083    2.7672   -1.1771 H       1  UNL1        0.0000
     38 H           3.0531    2.0567    1.4959 H       1  UNL1        0.0000
     39 H           4.4237    1.3739    2.3013 H       1  UNL1        0.0000
     40 H           2.5399   -3.4081   -1.0276 H       1  UNL1        0.0000
     41 H           1.2973   -3.2164   -2.2767 H       1  UNL1        0.0000
     42 H           0.1910    3.3206   -1.3486 H       1  UNL1        0.0000
     43 H           6.3670    1.0336    1.0246 H       1  UNL1        0.0000
     44 H           6.2723    0.5667   -0.6616 H       1  UNL1        0.0000
     45 H           5.6471   -0.5243    0.5926 H       1  UNL1        0.0000
     46 H          -1.9257    2.8202   -0.2015 H       1  UNL1        0.0000
     47 H          -4.1959   -2.6156    0.2250 H       1  UNL1        0.0000
     48 H          -2.6723   -2.0574   -0.4835 H       1  UNL1        0.0000
     49 H          -2.7635   -2.4315    1.2492 H       1  UNL1        0.0000
     50 H          -5.9488   -0.8707    1.8387 H       1  UNL1        0.0000
     51 H          -4.6725   -0.6637    3.0468 H       1  UNL1        0.0000
     52 H          -5.4577    0.7586    2.3436 H       1  UNL1        0.0000
     53 H          -5.5581   -1.3606   -1.4096 H       1  UNL1        0.0000
     54 H          -6.2470    0.1021   -2.1100 H       1  UNL1        0.0000
     55 H          -6.5767   -0.2944   -0.4265 H       1  UNL1        0.0000
     56 H          -4.1367    2.6020   -0.2350 H       1  UNL1        0.0000
     57 H          -5.7521    2.0504    0.2123 H       1  UNL1        0.0000
     58 H          -5.3769    2.4080   -1.4720 H       1  UNL1        0.0000
     59 H          -2.6689    1.1076   -1.7943 H       1  UNL1        0.0000
     60 H          -4.0010    0.8013   -2.8768 H       1  UNL1        0.0000
     61 H          -3.1589   -0.5539   -2.1445 H       1  UNL1        0.0000
@<TRIPOS>BOND
     1     1     4    1
     2     1    23    1
     3     1    24    1
     4     1    25    1
     5     2     9    1
     6     2    17    1
     7     3    18    2
     8     4    21    1
     9     5     8    1
    10     5    14    1
    11     5    19    1
    12     6     7    1
    13     6     9    1
    14     6    10    1
    15     6    11    1
    16     7     8    1
    17     7    12    1
    18     7    29    1
    19     8    13    1
    20     8    30    1
    21     9    18    1
    22     9    31    1
    23    10    14    1
    24    10    32    1
    25    10    33    1
    26    11    15   ar
    27    11    17   ar
    28    12    16    1
    29    12    34    1
    30    12    35    1
    31    13    15    1
    32    13    36    1
    33    13    37    1
    34    14    38    1
    35    14    39    1
    36    15    20   ar
    37    16    18    1
    38    16    40    1
    39    16    41    1
    40    17    21   ar
    41    19    43    1
    42    19    44    1
    43    19    45    1
    44    20    22   ar
    45    20    42    1
    46    21    22   ar
    47    22    46    1
    48    23    26    1
    49    23    27    1
    50    23    28    1
    51    24    47    1
    52    24    48    1
    53    24    49    1
    54    25    50    1
    55    25    51    1
    56    25    52    1
    57    26    53    1
    58    26    54    1
    59    26    55    1
    60    27    56    1
    61    27    57    1
    62    27    58    1
    63    28    59    1
    64    28    60    1
    65    28    61    1
@<TRIPOS>MOLECULE
6426024
 48 52 0 0 0
SMALL
GASTEIGER

@<TRIPOS>ATOM
      1 F          -4.7295   -0.1625    1.9019 F       1  UNL1       -0.1833
      2 F          -4.2557   -1.5497    0.2941 F       1  UNL1       -0.1833
      3 F          -4.8943    0.3635   -1.5723 F       1  UNL1       -0.1645
      4 F          -5.3626    1.7822    0.0163 F       1  UNL1       -0.1645
      5 F          -6.5042   -0.0699   -0.1670 F       1  UNL1       -0.1645
      6 O           0.1744   -1.3724    0.8689 O.3     1  UNL1       -0.4765
      7 O           0.9705   -3.6443   -0.3852 O.2     1  UNL1       -0.2934
      8 O          -2.1639   -0.2935   -0.5070 O.3     1  UNL1       -0.4177
      9 O          -2.5015    1.3062    1.1652 O.2     1  UNL1       -0.2433
     10 N           4.4468    1.6110    0.8157 N.3     1  UNL1       -0.3018
     11 C           2.4071   -0.4552    0.7068 C.3     1  UNL1        0.0488
     12 C           3.7615   -0.5846    0.0007 C.3     1  UNL1       -0.0111
     13 C           4.1884    0.8521   -0.4322 C.3     1  UNL1        0.0179
     14 C           1.5885   -1.7314    0.9564 C.3     1  UNL1        0.1677
     15 C           2.6009    0.3916    1.9830 C.3     1  UNL1       -0.0263
     16 C           1.4302    0.2134   -0.1940 C.ar    1  UNL1        0.0116
     17 C           3.7349   -1.6085   -1.1410 C.3     1  UNL1       -0.0410
     18 C           3.1588    1.5200   -1.4106 C.3     1  UNL1       -0.0113
     19 C           3.2797    1.7427    1.6942 C.3     1  UNL1       -0.0002
     20 C           1.7176    1.1767   -1.1414 C.ar    1  UNL1       -0.0383
     21 C           3.2480   -2.9573   -0.6235 C.3     1  UNL1        0.0099
     22 C           1.8461   -2.8377   -0.0698 C.2     1  UNL1        0.1744
     23 C           0.1673   -0.3095   -0.0038 C.ar    1  UNL1        0.1678
     24 C           5.0936    2.8991    0.5902 C.3     1  UNL1       -0.0125
     25 C           0.6385    1.6930   -1.8589 C.ar    1  UNL1       -0.0545
     26 C          -0.9131    0.1948   -0.6903 C.ar    1  UNL1        0.1735
     27 C          -0.6687    1.2166   -1.6193 C.ar    1  UNL1       -0.0153
     28 C          -2.9080    0.3751    0.4816 C.2     1  UNL1        0.3923
     29 C          -4.2805   -0.2293    0.6200 C.3     1  UNL1        0.4357
     30 C          -5.2709    0.4679   -0.2789 C.3     1  UNL1        0.4655
     31 H           4.5008   -0.9616    0.7246 H       1  UNL1        0.0326
     32 H           5.1459    0.7693   -0.9640 H       1  UNL1        0.0469
     33 H           1.7834   -2.1540    1.9488 H       1  UNL1        0.0823
     34 H           3.2235   -0.1723    2.6908 H       1  UNL1        0.0287
     35 H           1.6457    0.5780    2.4908 H       1  UNL1        0.0287
     36 H           4.7436   -1.7207   -1.5556 H       1  UNL1        0.0273
     37 H           3.0904   -1.2782   -1.9632 H       1  UNL1        0.0273
     38 H           3.3904    1.1628   -2.4231 H       1  UNL1        0.0329
     39 H           3.2790    2.6076   -1.4349 H       1  UNL1        0.0329
     40 H           2.5481    2.4413    1.2696 H       1  UNL1        0.0427
     41 H           3.5907    2.1716    2.6551 H       1  UNL1        0.0427
     42 H           3.9010   -3.3426    0.1668 H       1  UNL1        0.0343
     43 H           3.2423   -3.6843   -1.4427 H       1  UNL1        0.0343
     44 H           5.4437    3.3171    1.5409 H       1  UNL1        0.0391
     45 H           4.4280    3.6349    0.1280 H       1  UNL1        0.0391
     46 H           5.9800    2.7859   -0.0434 H       1  UNL1        0.0391
     47 H           0.7976    2.4513   -2.6208 H       1  UNL1        0.0622
     48 H          -1.4934    1.6334   -2.1934 H       1  UNL1        0.0656
@<TRIPOS>BOND
     1     1    29    1
     2     2    29    1
     3     3    30    1
     4     4    30    1
     5     5    30    1
     6     6    14    1
     7     6    23    1
     8     7    22    2
     9     8    26    1
    10     8    28    1
    11     9    28    2
    12    10    13    1
    13    10    19    1
    14    10    24    1
    15    11    12    1
    16    11    14    1
    17    11    15    1
    18    11    16    1
    19    12    13    1
    20    12    17    1
    21    12    31    1
    22    13    18    1
    23    13    32    1
    24    14    22    1
    25    14    33    1
    26    15    19    1
    27    15    34    1
    28    15    35    1
    29    16    20   ar
    30    16    23   ar
    31    17    21    1
    32    17    36    1
    33    17    37    1
    34    18    20    1
    35    18    38    1
    36    18    39    1
    37    19    40    1
    38    19    41    1
    39    20    25   ar
    40    21    22    1
    41    21    42    1
    42    21    43    1
    43    23    26   ar
    44    24    44    1
    45    24    45    1
    46    24    46    1
    47    25    27   ar
    48    25    47    1
    49    26    27   ar
    50    27    48    1
    51    28    29    1
    52    29    30    1
@<TRIPOS>MOLECULE
86141220
 45 49 0 0 0
SMALL
GASTEIGER

@<TRIPOS>ATOM
      1 F           4.6598   -0.5031    1.7476 F       1  UNL1       -0.1606
      2 F           3.7112   -2.0346    0.5194 F       1  UNL1       -0.1606
      3 F           2.5159   -0.4184    1.3623 F       1  UNL1       -0.1606
      4 O           0.5148    1.5190    0.9468 O.3     1  UNL1       -0.4765
      5 O          -0.6533    3.8068    0.0694 O.2     1  UNL1       -0.2934
      6 O           2.8875    0.9805   -0.6678 O.3     1  UNL1       -0.4159
      7 O           4.9823    0.0358   -1.1104 O.2     1  UNL1       -0.2402
      8 N          -3.3157   -2.0010    0.6403 N.3     1  UNL1       -0.3018
      9 C          -1.5810    0.3273    0.7468 C.3     1  UNL1        0.0488
     10 C          -2.9813    0.3602    0.1241 C.3     1  UNL1       -0.0111
     11 C          -3.2381   -1.0487   -0.4942 C.3     1  UNL1        0.0179
     12 C          -0.9266    1.6594    1.1444 C.3     1  UNL1        0.1677
     13 C          -1.5812   -0.7060    1.8940 C.3     1  UNL1       -0.0263
     14 C          -0.5805   -0.0664   -0.2813 C.ar    1  UNL1        0.0116
     15 C          -3.1617    1.5252   -0.8573 C.3     1  UNL1       -0.0410
     16 C          -2.1903   -1.4237   -1.6012 C.3     1  UNL1       -0.0113
     17 C          -2.0898   -2.0866    1.4410 C.3     1  UNL1       -0.0002
     18 C          -0.7942   -0.9209   -1.3454 C.ar    1  UNL1       -0.0383
     19 C          -2.8288    2.8448   -0.1707 C.3     1  UNL1        0.0099
     20 C          -1.3921    2.8491    0.3009 C.2     1  UNL1        0.1744
     21 C           0.6103    0.5981   -0.0702 C.ar    1  UNL1        0.1678
     22 C          -3.7971   -3.3241    0.2578 C.3     1  UNL1       -0.0125
     23 C           0.2981   -1.1761   -2.1745 C.ar    1  UNL1       -0.0545
     24 C           1.7043    0.3507   -0.8671 C.ar    1  UNL1        0.1736
     25 C           1.5422   -0.5576   -1.9233 C.ar    1  UNL1       -0.0153
     26 C           3.9706    0.1162   -0.4269 C.2     1  UNL1        0.4184
     27 C           3.7146   -0.7062    0.7955 C.3     1  UNL1        0.4915
     28 H          -3.7186    0.5260    0.9252 H       1  UNL1        0.0326
     29 H          -4.2287   -1.0294   -0.9680 H       1  UNL1        0.0469
     30 H          -1.1149    1.9096    2.1947 H       1  UNL1        0.0823
     31 H          -2.2288   -0.3385    2.7014 H       1  UNL1        0.0287
     32 H          -0.5801   -0.8241    2.3287 H       1  UNL1        0.0287
     33 H          -4.1998    1.5500   -1.2090 H       1  UNL1        0.0273
     34 H          -2.5305    1.4054   -1.7449 H       1  UNL1        0.0273
     35 H          -2.5292   -0.9666   -2.5406 H       1  UNL1        0.0329
     36 H          -2.1652   -2.5035   -1.7777 H       1  UNL1        0.0329
     37 H          -2.2811   -2.6833    2.3417 H       1  UNL1        0.0427
     38 H          -1.2988   -2.6098    0.8895 H       1  UNL1        0.0427
     39 H          -3.4778    3.0215    0.6936 H       1  UNL1        0.0343
     40 H          -2.9706    3.6712   -0.8754 H       1  UNL1        0.0343
     41 H          -4.7278   -3.2508   -0.3152 H       1  UNL1        0.0391
     42 H          -4.0292   -3.9142    1.1516 H       1  UNL1        0.0391
     43 H          -3.0687   -3.8879   -0.3335 H       1  UNL1        0.0391
     44 H           0.1949   -1.8360   -3.0317 H       1  UNL1        0.0622
     45 H           2.3719   -0.7708   -2.5939 H       1  UNL1        0.0656
@<TRIPOS>BOND
     1     1    27    1
     2     2    27    1
     3     3    27    1
     4     4    12    1
     5     4    21    1
     6     5    20    2
     7     6    24    1
     8     6    26    1
     9     7    26    2
    10     8    11    1
    11     8    17    1
    12     8    22    1
    13     9    10    1
    14     9    12    1
    15     9    13    1
    16     9    14    1
    17    10    11    1
    18    10    15    1
    19    10    28    1
    20    11    16    1
    21    11    29    1
    22    12    20    1
    23    12    30    1
    24    13    17    1
    25    13    31    1
    26    13    32    1
    27    14    18   ar
    28    14    21   ar
    29    15    19    1
    30    15    33    1
    31    15    34    1
    32    16    18    1
    33    16    35    1
    34    16    36    1
    35    17    37    1
    36    17    38    1
    37    18    23   ar
    38    19    20    1
    39    19    39    1
    40    19    40    1
    41    21    24   ar
    42    22    41    1
    43    22    42    1
    44    22    43    1
    45    23    25   ar
    46    23    44    1
    47    24    25   ar
    48    25    45    1
    49    26    27    1
@<TRIPOS>MOLECULE
91753907
 56 60 0 0 0
SMALL
GASTEIGER

@<TRIPOS>ATOM
      1 O           0.3471    1.1320    0.4039 O.3     1  UNL1       -0.4763
      2 O          -2.0603    2.3892   -0.6550 O.3     1  UNL1       -0.4268
      3 O           2.9638    1.5324   -0.8157 O.3     1  UNL1       -0.4221
      4 O          -3.9306    2.1505    0.7066 O.2     1  UNL1       -0.2504
      5 O           4.0819    0.8728    1.1290 O.2     1  UNL1       -0.2504
      6 N          -1.1884   -3.8233    1.1243 N.3     1  UNL1       -0.3018
      7 C          -0.7910   -1.0072    0.5473 C.3     1  UNL1        0.0492
      8 C          -1.8461   -1.8574   -0.1686 C.3     1  UNL1       -0.0079
      9 C          -1.2719   -3.3069   -0.2629 C.3     1  UNL1        0.0181
     10 C          -0.9866    0.5229    0.5289 C.3     1  UNL1        0.1671
     11 C          -0.5733   -1.5591    1.9721 C.3     1  UNL1       -0.0262
     12 C           0.4793   -1.0633   -0.2226 C.ar    1  UNL1        0.0117
     13 C           0.0787   -3.3701   -1.0657 C.3     1  UNL1       -0.0113
     14 C          -2.2786   -1.2729   -1.5268 C.3     1  UNL1       -0.0260
     15 C          -0.2740   -3.0673    1.9860 C.3     1  UNL1       -0.0002
     16 C           0.9538   -2.1501   -0.9323 C.ar    1  UNL1       -0.0383
     17 C           1.1043    0.1655   -0.2122 C.ar    1  UNL1        0.1678
     18 C          -1.8658    1.0225   -0.5951 C.2     1  UNL1        0.1461
     19 C          -2.4375    0.2202   -1.5052 C.2     1  UNL1       -0.0417
     20 C          -0.9263   -5.2570    1.1955 C.3     1  UNL1       -0.0125
     21 C           2.1843   -1.9949   -1.5708 C.ar    1  UNL1       -0.0545
     22 C           2.3238    0.3377   -0.8270 C.ar    1  UNL1        0.1734
     23 C           2.8709   -0.7637   -1.5009 C.ar    1  UNL1       -0.0153
     24 C          -3.1504    2.8317    0.0544 C.2     1  UNL1        0.3119
     25 C           3.8628    1.7031    0.2573 C.2     1  UNL1        0.3122
     26 C          -3.2454    4.3327   -0.1103 C.3     1  UNL1        0.0425
     27 C           4.5117    3.0653    0.1630 C.3     1  UNL1        0.0425
     28 C          -4.4443    4.9141    0.6185 C.3     1  UNL1       -0.0552
     29 C           5.5081    3.3006    1.2844 C.3     1  UNL1       -0.0552
     30 H          -2.7541   -1.8778    0.4547 H       1  UNL1        0.0329
     31 H          -2.0076   -3.9234   -0.7967 H       1  UNL1        0.0469
     32 H          -1.4111    0.8675    1.4799 H       1  UNL1        0.0825
     33 H          -1.4817   -1.3777    2.5625 H       1  UNL1        0.0287
     34 H           0.2415   -1.0316    2.4849 H       1  UNL1        0.0287
     35 H          -0.1775   -3.4686   -2.1291 H       1  UNL1        0.0329
     36 H           0.6566   -4.2631   -0.8082 H       1  UNL1        0.0329
     37 H          -3.2382   -1.7255   -1.8059 H       1  UNL1        0.0312
     38 H          -1.5773   -1.5280   -2.3283 H       1  UNL1        0.0312
     39 H           0.7705   -3.2422    1.7000 H       1  UNL1        0.0427
     40 H          -0.3709   -3.4171    3.0215 H       1  UNL1        0.0427
     41 H          -3.0377    0.6581   -2.2988 H       1  UNL1        0.0606
     42 H          -1.6319   -5.8144    0.5698 H       1  UNL1        0.0391
     43 H          -1.0710   -5.6165    2.2206 H       1  UNL1        0.0391
     44 H           0.0911   -5.5210    0.8906 H       1  UNL1        0.0391
     45 H           2.6122   -2.8116   -2.1458 H       1  UNL1        0.0622
     46 H           3.8267   -0.6653   -2.0110 H       1  UNL1        0.0656
     47 H          -2.3279    4.7827    0.2834 H       1  UNL1        0.0375
     48 H          -3.3273    4.5597   -1.1786 H       1  UNL1        0.0375
     49 H           5.0257    3.1364   -0.8012 H       1  UNL1        0.0375
     50 H           3.7251    3.8255    0.2081 H       1  UNL1        0.0375
     51 H          -5.3790    4.4844    0.2431 H       1  UNL1        0.0235
     52 H          -4.4859    5.9987    0.4793 H       1  UNL1        0.0235
     53 H          -4.3890    4.7085    1.6927 H       1  UNL1        0.0235
     54 H           6.3086    2.5537    1.2623 H       1  UNL1        0.0235
     55 H           5.9619    4.2918    1.1895 H       1  UNL1        0.0235
     56 H           5.0204    3.2394    2.2630 H       1  UNL1        0.0235
@<TRIPOS>BOND
     1     1    10    1
     2     1    17    1
     3     2    18    1
     4     2    24    1
     5     3    22    1
     6     3    25    1
     7     4    24    2
     8     5    25    2
     9     6     9    1
    10     6    15    1
    11     6    20    1
    12     7     8    1
    13     7    10    1
    14     7    11    1
    15     7    12    1
    16     8     9    1
    17     8    14    1
    18     8    30    1
    19     9    13    1
    20     9    31    1
    21    10    18    1
    22    10    32    1
    23    11    15    1
    24    11    33    1
    25    11    34    1
    26    12    16   ar
    27    12    17   ar
    28    13    16    1
    29    13    35    1
    30    13    36    1
    31    14    19    1
    32    14    37    1
    33    14    38    1
    34    15    39    1
    35    15    40    1
    36    16    21   ar
    37    17    22   ar
    38    18    19    2
    39    19    41    1
    40    20    42    1
    41    20    43    1
    42    20    44    1
    43    21    23   ar
    44    21    45    1
    45    22    23   ar
    46    23    46    1
    47    24    26    1
    48    25    27    1
    49    26    28    1
    50    26    47    1
    51    26    48    1
    52    27    29    1
    53    27    49    1
    54    27    50    1
    55    28    51    1
    56    28    52    1
    57    28    53    1
    58    29    54    1
    59    29    55    1
    60    29    56    1
@<TRIPOS>MOLECULE
131769954
 42 46 0 0 0
SMALL
GASTEIGER

@<TRIPOS>ATOM
      1 O          -1.7097    1.2324    1.1397 O.3     1  UNL1       -0.4814
      2 O           0.7365    3.6755    0.0046 O.3     1  UNL1       -0.3881
      3 O          -4.1611   -0.2535    0.6681 O.3     1  UNL1       -0.5033
      4 N           2.7751   -1.4526    0.3437 N.3     1  UNL1       -0.3018
      5 C           0.5221    0.4434    0.5712 C.3     1  UNL1        0.0443
      6 C           1.5431    0.5566   -0.5619 C.3     1  UNL1       -0.0117
      7 C          -0.3331    1.6864    0.8936 C.3     1  UNL1        0.1360
      8 C           2.0738   -0.8882   -0.8377 C.3     1  UNL1        0.0178
      9 C           1.2167   -0.1188    1.8310 C.3     1  UNL1       -0.0266
     10 C          -0.5665   -0.4663    0.1253 C.ar    1  UNL1        0.0113
     11 C           1.0177    1.2628   -1.8296 C.3     1  UNL1       -0.0454
     12 C          -0.3304    2.7531   -0.2159 C.3     1  UNL1        0.0928
     13 C           0.9330   -1.8750   -1.2800 C.3     1  UNL1       -0.0113
     14 C          -0.2030    2.1684   -1.6224 C.3     1  UNL1       -0.0230
     15 C           1.9609   -1.4369    1.5667 C.3     1  UNL1       -0.0002
     16 C          -0.4195   -1.5800   -0.6834 C.ar    1  UNL1       -0.0383
     17 C          -1.7933    0.0064    0.5338 C.ar    1  UNL1        0.1663
     18 C           4.0838   -0.8388    0.5643 C.3     1  UNL1       -0.0125
     19 C          -1.5746   -2.3049   -0.9782 C.ar    1  UNL1       -0.0546
     20 C          -2.9456   -0.6963    0.2591 C.ar    1  UNL1        0.1588
     21 C          -2.8260   -1.8737   -0.4921 C.ar    1  UNL1       -0.0162
     22 H           2.3721    1.1836   -0.2067 H       1  UNL1        0.0326
     23 H           0.0054    2.1486    1.8297 H       1  UNL1        0.0768
     24 H           2.7926   -0.8576   -1.6676 H       1  UNL1        0.0469
     25 H           0.4918   -0.2831    2.6390 H       1  UNL1        0.0287
     26 H           1.9334    0.6250    2.2036 H       1  UNL1        0.0287
     27 H           0.7837    0.5463   -2.6252 H       1  UNL1        0.0270
     28 H           1.8383    1.8703   -2.2349 H       1  UNL1        0.0270
     29 H          -1.2605    3.3323   -0.1713 H       1  UNL1        0.0630
     30 H           1.2161   -2.9128   -1.0635 H       1  UNL1        0.0329
     31 H           0.8323   -1.8022   -2.3709 H       1  UNL1        0.0329
     32 H          -0.1524    2.9820   -2.3569 H       1  UNL1        0.0291
     33 H          -1.1107    1.6005   -1.8596 H       1  UNL1        0.0291
     34 H           2.5744   -1.6886    2.4415 H       1  UNL1        0.0427
     35 H           1.2317   -2.2541    1.5071 H       1  UNL1        0.0427
     36 H           4.6941   -0.8882   -0.3442 H       1  UNL1        0.0391
     37 H           4.6352   -1.3914    1.3336 H       1  UNL1        0.0391
     38 H           4.0230    0.2065    0.8823 H       1  UNL1        0.0391
     39 H          -1.5226   -3.1908   -1.6054 H       1  UNL1        0.0622
     40 H           0.5916    4.0908    0.8717 H       1  UNL1        0.2099
     41 H          -3.7110   -2.4547   -0.7423 H       1  UNL1        0.0655
     42 H          -4.8406   -0.8818    0.3686 H       1  UNL1        0.2923
@<TRIPOS>BOND
     1     1     7    1
     2     1    17    1
     3     2    12    1
     4     2    40    1
     5     3    20    1
     6     3    42    1
     7     4     8    1
     8     4    15    1
     9     4    18    1
    10     5     6    1
    11     5     7    1
    12     5     9    1
    13     5    10    1
    14     6     8    1
    15     6    11    1
    16     6    22    1
    17     7    12    1
    18     7    23    1
    19     8    13    1
    20     8    24    1
    21     9    15    1
    22     9    25    1
    23     9    26    1
    24    10    16   ar
    25    10    17   ar
    26    11    14    1
    27    11    27    1
    28    11    28    1
    29    12    14    1
    30    12    29    1
    31    13    16    1
    32    13    30    1
    33    13    31    1
    34    14    32    1
    35    14    33    1
    36    15    34    1
    37    15    35    1
    38    16    19   ar
    39    17    20   ar
    40    18    36    1
    41    18    37    1
    42    18    38    1
    43    19    21   ar
    44    19    39    1
    45    20    21   ar
    46    21    41    1
@<TRIPOS>MOLECULE
9824861
 61 66 0 0 0
SMALL
GASTEIGER

@<TRIPOS>ATOM
      1 O          -0.5522    1.3058    1.2046 O.3     1  UNL1       -0.4765
      2 O          -1.8206    3.6974    1.0040 O.2     1  UNL1       -0.2934
      3 O           1.7078    1.2675   -0.6435 O.3     1  UNL1       -0.4572
      4 O           2.7562   -0.6101    0.2617 O.3     1  UNL1       -0.3313
      5 O           4.2384    2.2994   -1.3777 O.3     1  UNL1       -0.3829
      6 O           6.3820    1.3146    0.3876 O.3     1  UNL1       -0.3864
      7 O           6.2755   -1.5663    0.5990 O.3     1  UNL1       -0.3865
      8 O           2.4155   -3.2933    0.7521 O.3     1  UNL1       -0.3924
      9 N          -4.3319   -2.1602    0.2788 N.3     1  UNL1       -0.3018
     10 C          -2.6357    0.1282    0.8502 C.3     1  UNL1        0.0488
     11 C          -4.0773    0.2655    0.3479 C.3     1  UNL1       -0.0111
     12 C          -4.3527   -0.9544   -0.5846 C.3     1  UNL1        0.0179
     13 C          -1.9781    1.3424    1.5243 C.3     1  UNL1        0.1677
     14 C          -2.5353   -1.1564    1.7005 C.3     1  UNL1       -0.0263
     15 C          -1.7046    0.0370   -0.3065 C.ar    1  UNL1        0.0116
     16 C          -4.3482    1.6303   -0.2978 C.3     1  UNL1       -0.0410
     17 C          -3.3806   -1.0064   -1.8157 C.3     1  UNL1       -0.0113
     18 C          -3.0505   -2.3986    0.9512 C.3     1  UNL1       -0.0002
     19 C          -1.9788   -0.5342   -1.5339 C.ar    1  UNL1       -0.0383
     20 C          -3.9903    2.7494    0.6734 C.3     1  UNL1        0.0099
     21 C          -0.5136    0.6696   -0.0139 C.ar    1  UNL1        0.1672
     22 C          -2.5238    2.6869    1.0366 C.2     1  UNL1        0.1744
     23 C          -4.8160   -3.3632   -0.3897 C.3     1  UNL1       -0.0125
     24 C          -0.9444   -0.5376   -2.4697 C.ar    1  UNL1       -0.0546
     25 C           0.5247    0.6658   -0.9169 C.ar    1  UNL1        0.1657
     26 C           0.3033    0.0424   -2.1535 C.ar    1  UNL1       -0.0159
     27 C           2.8796    0.4534   -0.6796 C.3     1  UNL1        0.2310
     28 C           4.0778    1.3378   -0.3351 C.3     1  UNL1        0.1454
     29 C           5.3583    0.5129   -0.2040 C.3     1  UNL1        0.1152
     30 C           3.8898   -1.4797    0.2578 C.3     1  UNL1        0.1140
     31 C           5.1403   -0.7093    0.6881 C.3     1  UNL1        0.1120
     32 C           3.5855   -2.6364    1.2044 C.3     1  UNL1        0.0731
     33 H          -4.7581    0.2016    1.2112 H       1  UNL1        0.0326
     34 H          -5.3750   -0.8529   -0.9731 H       1  UNL1        0.0469
     35 H          -2.0950    1.3178    2.6138 H       1  UNL1        0.0823
     36 H          -3.1299   -1.0233    2.6145 H       1  UNL1        0.0287
     37 H          -1.5037   -1.3435    2.0261 H       1  UNL1        0.0287
     38 H          -5.4091    1.7052   -0.5638 H       1  UNL1        0.0273
     39 H          -3.7803    1.7564   -1.2263 H       1  UNL1        0.0273
     40 H          -3.7940   -0.3429   -2.5872 H       1  UNL1        0.0329
     41 H          -3.3492   -2.0072   -2.2576 H       1  UNL1        0.0329
     42 H          -2.2918   -2.7409    0.2363 H       1  UNL1        0.0427
     43 H          -3.1661   -3.2062    1.6850 H       1  UNL1        0.0427
     44 H          -4.5787    2.6836    1.5947 H       1  UNL1        0.0343
     45 H          -4.1968    3.7192    0.2080 H       1  UNL1        0.0343
     46 H          -4.9731   -4.1642    0.3416 H       1  UNL1        0.0391
     47 H          -4.1220   -3.7371   -1.1492 H       1  UNL1        0.0391
     48 H          -5.7866   -3.1828   -0.8646 H       1  UNL1        0.0391
     49 H          -1.0978   -0.9661   -3.4565 H       1  UNL1        0.0622
     50 H           1.0801    0.0357   -2.9145 H       1  UNL1        0.0655
     51 H           3.0015    0.0434   -1.6910 H       1  UNL1        0.1084
     52 H           3.8914    1.8992    0.5881 H       1  UNL1        0.0683
     53 H           5.7305    0.2136   -1.1915 H       1  UNL1        0.0648
     54 H           5.0529   -0.3765    1.7306 H       1  UNL1        0.0647
     55 H           4.0114   -1.8918   -0.7532 H       1  UNL1        0.0647
     56 H           3.3976   -2.2823    2.2234 H       1  UNL1        0.0584
     57 H           4.3950   -3.3706    1.2289 H       1  UNL1        0.0584
     58 H           4.4073    1.8202   -2.2068 H       1  UNL1        0.2102
     59 H           7.1755    0.7586    0.4712 H       1  UNL1        0.2100
     60 H           6.2326   -2.1950    1.3388 H       1  UNL1        0.2100
     61 H           1.6992   -2.6359    0.7282 H       1  UNL1        0.2095
@<TRIPOS>BOND
     1     1    13    1
     2     1    21    1
     3     2    22    2
     4     3    25    1
     5     3    27    1
     6     4    27    1
     7     4    30    1
     8     5    28    1
     9     5    58    1
    10     6    29    1
    11     6    59    1
    12     7    31    1
    13     7    60    1
    14     8    32    1
    15     8    61    1
    16     9    12    1
    17     9    18    1
    18     9    23    1
    19    10    11    1
    20    10    13    1
    21    10    14    1
    22    10    15    1
    23    11    12    1
    24    11    16    1
    25    11    33    1
    26    12    17    1
    27    12    34    1
    28    13    22    1
    29    13    35    1
    30    14    18    1
    31    14    36    1
    32    14    37    1
    33    15    19   ar
    34    15    21   ar
    35    16    20    1
    36    16    38    1
    37    16    39    1
    38    17    19    1
    39    17    40    1
    40    17    41    1
    41    18    42    1
    42    18    43    1
    43    19    24   ar
    44    20    22    1
    45    20    44    1
    46    20    45    1
    47    21    25   ar
    48    23    46    1
    49    23    47    1
    50    23    48    1
    51    24    26   ar
    52    24    49    1
    53    25    26   ar
    54    26    50    1
    55    27    28    1
    56    27    51    1
    57    28    29    1
    58    28    52    1
    59    29    31    1
    60    29    53    1
    61    30    31    1
    62    30    32    1
    63    30    55    1
    64    31    54    1
    65    32    56    1
    66    32    57    1
@<TRIPOS>MOLECULE
75212984
 44 48 0 0 0
SMALL
GASTEIGER

@<TRIPOS>ATOM
      1 S           4.4083   -0.5808    0.2883 S.O2    1  UNL1        0.2514
      2 O           0.7873    1.4342    0.9893 O.3     1  UNL1       -0.4764
      3 O           0.0026    3.6882   -0.3036 O.2     1  UNL1       -0.2934
      4 O           3.2165    0.4113   -0.2674 O.3     1  UNL1       -0.3213
      5 O           5.4139    0.4291    1.0844 O.3     1  UNL1       -0.2222
      6 O           3.8403   -1.4999    1.2572 O.2     1  UNL1       -0.1077
      7 O           5.1310   -1.0949   -0.8606 O.2     1  UNL1       -0.1077
      8 N          -3.4064   -1.6478    0.7214 N.3     1  UNL1       -0.3018
      9 C          -1.4125    0.4655    0.7150 C.3     1  UNL1        0.0488
     10 C          -2.7323    0.5639   -0.0584 C.3     1  UNL1       -0.0111
     11 C          -3.1032   -0.8818   -0.5120 C.3     1  UNL1        0.0179
     12 C          -0.6375    1.7600    1.0054 C.3     1  UNL1        0.1677
     13 C          -1.6505   -0.3869    1.9801 C.3     1  UNL1       -0.0263
     14 C          -0.3761   -0.1793   -0.1353 C.ar    1  UNL1        0.0117
     15 C          -2.6719    1.5894   -1.1975 C.3     1  UNL1       -0.0410
     16 C          -2.0102   -1.5246   -1.4372 C.3     1  UNL1       -0.0113
     17 C          -2.2823   -1.7532    1.6576 C.3     1  UNL1       -0.0002
     18 C          -0.5929   -1.1481   -1.0958 C.ar    1  UNL1       -0.0383
     19 C          -2.2434    2.9485   -0.6563 C.3     1  UNL1        0.0099
     20 C          -0.8686    2.8611   -0.0326 C.2     1  UNL1        0.1744
     21 C           0.8630    0.3726    0.1182 C.ar    1  UNL1        0.1700
     22 C          -4.0108   -2.9504    0.4638 C.3     1  UNL1       -0.0125
     23 C           0.5327   -1.6385   -1.7579 C.ar    1  UNL1       -0.0545
     24 C           1.9882   -0.1057   -0.5130 C.ar    1  UNL1        0.2004
     25 C           1.8148   -1.1319   -1.4529 C.ar    1  UNL1       -0.0130
     26 H          -3.5157    0.9229    0.6273 H       1  UNL1        0.0326
     27 H          -4.0343   -0.8208   -1.0914 H       1  UNL1        0.0469
     28 H          -0.8919    2.1770    1.9866 H       1  UNL1        0.0823
     29 H          -2.3210    0.1616    2.6555 H       1  UNL1        0.0287
     30 H          -0.7180   -0.5517    2.5353 H       1  UNL1        0.0287
     31 H          -3.6606    1.6785   -1.6625 H       1  UNL1        0.0273
     32 H          -1.9792    1.2750   -1.9861 H       1  UNL1        0.0273
     33 H          -2.1988   -1.1718   -2.4601 H       1  UNL1        0.0329
     34 H          -2.1036   -2.6147   -1.4674 H       1  UNL1        0.0329
     35 H          -2.6313   -2.1902    2.6016 H       1  UNL1        0.0427
     36 H          -1.5142   -2.4342    1.2705 H       1  UNL1        0.0427
     37 H          -2.9442    3.3177    0.1000 H       1  UNL1        0.0343
     38 H          -2.2134    3.6764   -1.4743 H       1  UNL1        0.0343
     39 H          -4.8666   -2.8572   -0.2137 H       1  UNL1        0.0391
     40 H          -4.3986   -3.3774    1.3956 H       1  UNL1        0.0391
     41 H          -3.3058   -3.6700    0.0358 H       1  UNL1        0.0391
     42 H           0.4295   -2.3978   -2.5284 H       1  UNL1        0.0622
     43 H           2.6675   -1.5288   -1.9984 H       1  UNL1        0.0656
     44 H           6.2018    0.0017    1.4950 H       1  UNL1        0.2479
@<TRIPOS>BOND
     1     1     4    1
     2     1     5    1
     3     1     6    2
     4     1     7    2
     5     2    12    1
     6     2    21    1
     7     3    20    2
     8     4    24    1
     9     5    44    1
    10     8    11    1
    11     8    17    1
    12     8    22    1
    13     9    10    1
    14     9    12    1
    15     9    13    1
    16     9    14    1
    17    10    11    1
    18    10    15    1
    19    10    26    1
    20    11    16    1
    21    11    27    1
    22    12    20    1
    23    12    28    1
    24    13    17    1
    25    13    29    1
    26    13    30    1
    27    14    18   ar
    28    14    21   ar
    29    15    19    1
    30    15    31    1
    31    15    32    1
    32    16    18    1
    33    16    33    1
    34    16    34    1
    35    17    35    1
    36    17    36    1
    37    18    23   ar
    38    19    20    1
    39    19    37    1
    40    19    38    1
    41    21    24   ar
    42    22    39    1
    43    22    40    1
    44    22    41    1
    45    23    25   ar
    46    23    42    1
    47    24    25   ar
    48    25    43    1
@<TRIPOS>MOLECULE
91753581
 50 54 0 0 0
SMALL
GASTEIGER

@<TRIPOS>ATOM
      1 O          -1.2556   -0.7286    0.5754 O.3     1  UNL1       -0.4763
      2 O          -0.5244   -3.3431   -0.4862 O.3     1  UNL1       -0.4269
      3 O          -3.4646    0.8228   -0.5239 O.3     1  UNL1       -0.4223
      4 O           1.0543   -4.4810    0.7929 O.2     1  UNL1       -0.2507
      5 O          -3.6516    2.1154    1.4186 O.2     1  UNL1       -0.2507
      6 N           3.3791    1.6853    0.9278 N.3     1  UNL1       -0.3018
      7 C           1.0679   -0.0271    0.5436 C.3     1  UNL1        0.0492
      8 C           2.3618   -0.1912   -0.2611 C.3     1  UNL1       -0.0079
      9 C           2.9763    1.2353   -0.4262 C.3     1  UNL1        0.0181
     10 C           0.1222   -1.2438    0.6148 C.3     1  UNL1        0.1671
     11 C           1.4040    0.5438    1.9376 C.3     1  UNL1       -0.0262
     12 C           0.1603    0.8989   -0.1831 C.ar    1  UNL1        0.0117
     13 C           2.0150    2.2228   -1.1834 C.3     1  UNL1       -0.0113
     14 C           2.1585   -0.9362   -1.5940 C.3     1  UNL1       -0.0260
     15 C           2.2610    1.8186    1.8670 C.3     1  UNL1       -0.0002
     16 C           0.5458    1.9873   -0.9428 C.ar    1  UNL1       -0.0383
     17 C          -1.1478    0.4774   -0.0734 C.ar    1  UNL1        0.1678
     18 C           0.3095   -2.2415   -0.5057 C.2     1  UNL1        0.1461
     19 C           1.2159   -2.1000   -1.4841 C.2     1  UNL1       -0.0417
     20 C           4.2136    2.8822    0.9177 C.3     1  UNL1       -0.0125
     21 C          -0.4741    2.7389   -1.5266 C.ar    1  UNL1       -0.0545
     22 C          -2.1702    1.2097   -0.6329 C.ar    1  UNL1        0.1733
     23 C          -1.8231    2.3605   -1.3552 C.ar    1  UNL1       -0.0153
     24 C          -0.0201   -4.4111    0.2099 C.2     1  UNL1        0.3090
     25 C          -4.1394    1.3617    0.5868 C.2     1  UNL1        0.3093
     26 C          -1.0162   -5.5328    0.1685 C.3     1  UNL1        0.0336
     27 C          -5.5580    0.8757    0.6181 C.3     1  UNL1        0.0336
     28 H           3.0584   -0.8090    0.3275 H       1  UNL1        0.0329
     29 H           3.8929    1.1369   -1.0232 H       1  UNL1        0.0469
     30 H           0.2432   -1.7692    1.5702 H       1  UNL1        0.0825
     31 H           1.9558   -0.2172    2.5060 H       1  UNL1        0.0287
     32 H           0.4933    0.7606    2.5110 H       1  UNL1        0.0287
     33 H           2.1911    2.0895   -2.2592 H       1  UNL1        0.0329
     34 H           2.2577    3.2668   -0.9625 H       1  UNL1        0.0329
     35 H           3.1343   -1.3039   -1.9347 H       1  UNL1        0.0312
     36 H           1.7898   -0.2743   -2.3849 H       1  UNL1        0.0312
     37 H           1.6298    2.6775    1.6074 H       1  UNL1        0.0427
     38 H           2.6484    2.0163    2.8744 H       1  UNL1        0.0427
     39 H           1.2733   -2.8497   -2.2692 H       1  UNL1        0.0606
     40 H           5.0608    2.7618    0.2337 H       1  UNL1        0.0391
     41 H           4.6408    3.0527    1.9125 H       1  UNL1        0.0391
     42 H           3.6632    3.7843    0.6327 H       1  UNL1        0.0391
     43 H          -0.2376    3.6065   -2.1365 H       1  UNL1        0.0622
     44 H          -2.6006    2.9596   -1.8242 H       1  UNL1        0.0656
     45 H          -1.9443   -5.2221    0.6549 H       1  UNL1        0.0342
     46 H          -0.6126   -6.3962    0.7051 H       1  UNL1        0.0342
     47 H          -1.2029   -5.8250   -0.8680 H       1  UNL1        0.0342
     48 H          -6.0748    1.1877   -0.2927 H       1  UNL1        0.0342
     49 H          -6.0725    1.3123    1.4787 H       1  UNL1        0.0342
     50 H          -5.5725   -0.2125    0.7162 H       1  UNL1        0.0342
@<TRIPOS>BOND
     1     1    10    1
     2     1    17    1
     3     2    18    1
     4     2    24    1
     5     3    22    1
     6     3    25    1
     7     4    24    2
     8     5    25    2
     9     6     9    1
    10     6    15    1
    11     6    20    1
    12     7     8    1
    13     7    10    1
    14     7    11    1
    15     7    12    1
    16     8     9    1
    17     8    14    1
    18     8    28    1
    19     9    13    1
    20     9    29    1
    21    10    18    1
    22    10    30    1
    23    11    15    1
    24    11    31    1
    25    11    32    1
    26    12    16   ar
    27    12    17   ar
    28    13    16    1
    29    13    33    1
    30    13    34    1
    31    14    19    1
    32    14    35    1
    33    14    36    1
    34    15    37    1
    35    15    38    1
    36    16    21   ar
    37    17    22   ar
    38    18    19    2
    39    19    39    1
    40    20    40    1
    41    20    41    1
    42    20    42    1
    43    21    23   ar
    44    21    43    1
    45    22    23   ar
    46    23    44    1
    47    24    26    1
    48    25    27    1
    49    26    45    1
    50    26    46    1
    51    26    47    1
    52    27    48    1
    53    27    49    1
    54    27    50    1
@<TRIPOS>MOLECULE
91753851
 57 61 0 0 0
SMALL
GASTEIGER

@<TRIPOS>ATOM
      1 SI         -2.1175   -4.5319    0.1429 Si      1  UNL1        0.0000
      2 F           4.6104   -1.9427   -0.3985 F       1  UNL1        0.0000
      3 F           5.4978   -0.9641    1.3348 F       1  UNL1        0.0000
      4 F           6.0847   -0.3608   -0.6756 F       1  UNL1        0.0000
      5 O           0.2623   -0.7141    0.9344 O.3     1  UNL1        0.0000
      6 O           2.7969   -0.2962   -0.4436 O.3     1  UNL1        0.0000
      7 O          -1.4373   -3.0158    0.3793 O.3     1  UNL1        0.0000
      8 O           4.0820    1.4348    0.4344 O.2     1  UNL1        0.0000
      9 N          -1.9835    4.0076    0.6275 N.3     1  UNL1        0.0000
     10 C          -0.3747    1.5941    0.5364 C.3     1  UNL1        0.0000
     11 C          -0.2434    2.7153   -0.5001 C.3     1  UNL1        0.0000
     12 C          -1.6611    3.3506   -0.6620 C.3     1  UNL1        0.0000
     13 C           0.8170    0.6254    0.6826 C.3     1  UNL1        0.0000
     14 C          -0.8160    2.1978    1.8865 C.3     1  UNL1        0.0000
     15 C          -1.3837    0.6116    0.0612 C.ar    1  UNL1        0.0000
     16 C          -2.7354    2.3124   -1.1524 C.3     1  UNL1        0.0000
     17 C           0.3802    2.2456   -1.8282 C.3     1  UNL1        0.0000
     18 C          -2.0678    3.0819    1.7615 C.3     1  UNL1        0.0000
     19 C          -2.5213    0.9011   -0.6683 C.ar    1  UNL1        0.0000
     20 C          -0.9909   -0.6726    0.3732 C.ar    1  UNL1        0.0000
     21 C           1.7211    0.5668   -0.5278 C.2     1  UNL1        0.0000
     22 C           1.5225    1.2891   -1.6404 C.2     1  UNL1        0.0000
     23 C          -3.1534    4.8770    0.5597 C.3     1  UNL1        0.0000
     24 C          -3.3476   -0.1738   -0.9966 C.ar    1  UNL1        0.0000
     25 C          -1.7960   -1.7464    0.0677 C.ar    1  UNL1        0.0000
     26 C          -2.9937   -1.4853   -0.6134 C.ar    1  UNL1        0.0000
     27 C           3.9332    0.2776    0.0634 C.2     1  UNL1        0.0000
     28 C          -3.7912   -4.6693    0.9879 C.3     1  UNL1        0.0000
     29 C          -0.9962   -5.8601    0.8784 C.3     1  UNL1        0.0000
     30 C          -2.3237   -4.9117   -1.6867 C.3     1  UNL1        0.0000
     31 C           5.0262   -0.7436    0.0820 C.3     1  UNL1        0.0000
     32 H           0.4412    3.4788   -0.0979 H       1  UNL1        0.0000
     33 H          -1.5882    4.1407   -1.4213 H       1  UNL1        0.0000
     34 H           1.4246    0.8927    1.5560 H       1  UNL1        0.0000
     35 H           0.0055    2.8095    2.2839 H       1  UNL1        0.0000
     36 H          -1.0085    1.4143    2.6309 H       1  UNL1        0.0000
     37 H          -2.6889    2.2875   -2.2494 H       1  UNL1        0.0000
     38 H          -3.7499    2.6349   -0.8983 H       1  UNL1        0.0000
     39 H           0.7447    3.1283   -2.3680 H       1  UNL1        0.0000
     40 H          -0.3562    1.7700   -2.4847 H       1  UNL1        0.0000
     41 H          -2.9628    2.4517    1.6888 H       1  UNL1        0.0000
     42 H          -2.1688    3.6512    2.6941 H       1  UNL1        0.0000
     43 H           2.2044    1.1733   -2.4790 H       1  UNL1        0.0000
     44 H          -3.0678    5.5824   -0.2740 H       1  UNL1        0.0000
     45 H          -3.2271    5.4818    1.4706 H       1  UNL1        0.0000
     46 H          -4.0913    4.3235    0.4508 H       1  UNL1        0.0000
     47 H          -4.2573   -0.0124   -1.5689 H       1  UNL1        0.0000
     48 H          -3.6786   -2.2765   -0.9003 H       1  UNL1        0.0000
     49 H          -4.5190   -3.9839    0.5456 H       1  UNL1        0.0000
     50 H          -4.1835   -5.6864    0.8942 H       1  UNL1        0.0000
     51 H          -3.7019   -4.4341    2.0526 H       1  UNL1        0.0000
     52 H          -0.0124   -5.8360    0.4007 H       1  UNL1        0.0000
     53 H          -0.8639   -5.6959    1.9517 H       1  UNL1        0.0000
     54 H          -1.4296   -6.8535    0.7302 H       1  UNL1        0.0000
     55 H          -3.0327   -4.2262   -2.1584 H       1  UNL1        0.0000
     56 H          -1.3645   -4.8233   -2.2055 H       1  UNL1        0.0000
     57 H          -2.6949   -5.9316   -1.8255 H       1  UNL1        0.0000
@<TRIPOS>BOND
     1     1     7    1
     2     1    28    1
     3     1    29    1
     4     1    30    1
     5     2    31    1
     6     3    31    1
     7     4    31    1
     8     5    13    1
     9     5    20    1
    10     6    21    1
    11     6    27    1
    12     7    25    1
    13     8    27    2
    14     9    12    1
    15     9    18    1
    16     9    23    1
    17    10    11    1
    18    10    13    1
    19    10    14    1
    20    10    15    1
    21    11    12    1
    22    11    17    1
    23    11    32    1
    24    12    16    1
    25    12    33    1
    26    13    21    1
    27    13    34    1
    28    14    18    1
    29    14    35    1
    30    14    36    1
    31    15    19   ar
    32    15    20   ar
    33    16    19    1
    34    16    37    1
    35    16    38    1
    36    17    22    1
    37    17    39    1
    38    17    40    1
    39    18    41    1
    40    18    42    1
    41    19    24   ar
    42    20    25   ar
    43    21    22    2
    44    22    43    1
    45    23    44    1
    46    23    45    1
    47    23    46    1
    48    24    26   ar
    49    24    47    1
    50    25    26   ar
    51    26    48    1
    52    27    31    1
    53    28    49    1
    54    28    50    1
    55    28    51    1
    56    29    52    1
    57    29    53    1
    58    29    54    1
    59    30    55    1
    60    30    56    1
    61    30    57    1
@<TRIPOS>MOLECULE
131769997
 60 65 0 0 0
SMALL
GASTEIGER

@<TRIPOS>ATOM
      1 O          -0.9157    1.5234   -0.9748 O.3     1  UNL1       -0.4765
      2 O          -1.3959    3.3846    0.9417 O.2     1  UNL1       -0.2934
      3 O           1.6220    0.1976   -0.4014 O.3     1  UNL1       -0.4571
      4 O           3.3265   -0.6080    1.0317 O.3     1  UNL1       -0.3221
      5 O           2.5033    2.8037    0.0065 O.3     1  UNL1       -0.3829
      6 O           5.2565    2.4820   -0.9166 O.3     1  UNL1       -0.3863
      7 O           5.8152   -0.2766   -1.6440 O.3     1  UNL1       -0.3860
      8 O           5.8256   -2.6587   -0.3341 O.3     1  UNL1       -0.4788
      9 O           4.8881   -2.4923    1.7370 O.2     1  UNL1       -0.2480
     10 N          -5.1618   -1.4945   -0.8344 N.3     1  UNL1       -0.3018
     11 C          -3.0936    0.5343   -0.6128 C.3     1  UNL1        0.0488
     12 C          -4.2794    0.4454    0.3545 C.3     1  UNL1       -0.0111
     13 C          -4.6458   -1.0650    0.4882 C.3     1  UNL1        0.0179
     14 C          -2.3107    1.8541   -0.6899 C.3     1  UNL1        0.1677
     15 C          -3.5543    0.0293   -1.9972 C.3     1  UNL1       -0.0263
     16 C          -1.9743   -0.3116   -0.1187 C.ar    1  UNL1        0.0116
     17 C          -4.0050    1.1514    1.6883 C.3     1  UNL1       -0.0410
     18 C          -3.4596   -1.9278    1.0465 C.3     1  UNL1       -0.0113
     19 C          -4.1937   -1.3694   -1.9291 C.3     1  UNL1       -0.0002
     20 C          -2.0920   -1.4890    0.5940 C.ar    1  UNL1       -0.0383
     21 C          -3.5984    2.5994    1.4403 C.3     1  UNL1        0.0099
     22 C          -0.7619    0.2764   -0.4160 C.ar    1  UNL1        0.1672
     23 C          -2.3354    2.6602    0.6111 C.2     1  UNL1        0.1744
     24 C          -5.7800   -2.8159   -0.8169 C.3     1  UNL1       -0.0125
     25 C          -0.9050   -2.1394    0.9322 C.ar    1  UNL1       -0.0546
     26 C           0.4207   -0.3545   -0.1043 C.ar    1  UNL1        0.1657
     27 C           0.3401   -1.5828    0.5677 C.ar    1  UNL1       -0.0159
     28 C           2.4907    0.4986    0.6894 C.3     1  UNL1        0.2314
     29 C           3.3527    1.7172    0.3592 C.3     1  UNL1        0.1455
     30 C           4.3254    1.4079   -0.7781 C.3     1  UNL1        0.1157
     31 C           5.1166    0.1348   -0.4696 C.3     1  UNL1        0.1202
     32 C           4.1961   -0.9993   -0.0286 C.3     1  UNL1        0.1869
     33 C           4.9831   -2.1157    0.5783 C.2     1  UNL1        0.3367
     34 H          -5.1377    0.9713   -0.0922 H       1  UNL1        0.0326
     35 H          -5.4779   -1.1444    1.2007 H       1  UNL1        0.0469
     36 H          -2.6872    2.5065   -1.4861 H       1  UNL1        0.0823
     37 H          -2.7224    0.0025   -2.7128 H       1  UNL1        0.0287
     38 H          -4.2910    0.7350   -2.4042 H       1  UNL1        0.0287
     39 H          -3.2191    0.6436    2.2585 H       1  UNL1        0.0273
     40 H          -4.9095    1.1286    2.3074 H       1  UNL1        0.0273
     41 H          -3.5978   -2.9898    0.8213 H       1  UNL1        0.0329
     42 H          -3.4787   -1.8410    2.1412 H       1  UNL1        0.0329
     43 H          -4.6975   -1.5525   -2.8866 H       1  UNL1        0.0427
     44 H          -3.4090   -2.1316   -1.8456 H       1  UNL1        0.0427
     45 H          -3.4152    3.0984    2.3981 H       1  UNL1        0.0343
     46 H          -4.3847    3.1522    0.9154 H       1  UNL1        0.0343
     47 H          -6.5213   -2.8901   -0.0139 H       1  UNL1        0.0391
     48 H          -5.0529   -3.6248   -0.6942 H       1  UNL1        0.0391
     49 H          -6.3199   -2.9923   -1.7542 H       1  UNL1        0.0391
     50 H          -0.9290   -3.0703    1.4922 H       1  UNL1        0.0622
     51 H           1.2417   -2.1268    0.8370 H       1  UNL1        0.0655
     52 H           1.8866    0.7422    1.5740 H       1  UNL1        0.1084
     53 H           3.9246    2.0199    1.2455 H       1  UNL1        0.0683
     54 H           3.8000    1.3322   -1.7369 H       1  UNL1        0.0648
     55 H           5.8736    0.3414    0.2971 H       1  UNL1        0.0652
     56 H           3.6062   -1.4162   -0.8541 H       1  UNL1        0.0742
     57 H           1.9057    2.9658    0.7562 H       1  UNL1        0.2102
     58 H           5.7192    2.5937   -0.0687 H       1  UNL1        0.2100
     59 H           5.1576   -0.4616   -2.3362 H       1  UNL1        0.2100
     60 H           6.3532   -3.3932    0.0458 H       1  UNL1        0.2951
@<TRIPOS>BOND
     1     1    14    1
     2     1    22    1
     3     2    23    2
     4     3    26    1
     5     3    28    1
     6     4    28    1
     7     4    32    1
     8     5    29    1
     9     5    57    1
    10     6    30    1
    11     6    58    1
    12     7    31    1
    13     7    59    1
    14     8    33    1
    15     8    60    1
    16     9    33    2
    17    10    13    1
    18    10    19    1
    19    10    24    1
    20    11    12    1
    21    11    14    1
    22    11    15    1
    23    11    16    1
    24    12    13    1
    25    12    17    1
    26    12    34    1
    27    13    18    1
    28    13    35    1
    29    14    23    1
    30    14    36    1
    31    15    19    1
    32    15    37    1
    33    15    38    1
    34    16    20   ar
    35    16    22   ar
    36    17    21    1
    37    17    39    1
    38    17    40    1
    39    18    20    1
    40    18    41    1
    41    18    42    1
    42    19    43    1
    43    19    44    1
    44    20    25   ar
    45    21    23    1
    46    21    45    1
    47    21    46    1
    48    22    26   ar
    49    24    47    1
    50    24    48    1
    51    24    49    1
    52    25    27   ar
    53    25    50    1
    54    26    27   ar
    55    27    51    1
    56    28    29    1
    57    28    52    1
    58    29    30    1
    59    29    53    1
    60    30    31    1
    61    30    54    1
    62    31    32    1
    63    31    55    1
    64    32    33    1
    65    32    56    1
@<TRIPOS>MOLECULE
131770048
 61 66 0 0 0
SMALL
GASTEIGER

@<TRIPOS>ATOM
      1 O           0.4975    0.0248    1.8088 O.3     1  UNL1       -0.4765
      2 O          -0.0762   -2.5877    1.3464 O.2     1  UNL1       -0.2934
      3 O          -1.5820    1.6847    0.6059 O.3     1  UNL1       -0.4572
      4 O          -2.6503   -0.2083   -0.2795 O.3     1  UNL1       -0.3313
      5 O          -3.8519    0.9224    2.0168 O.3     1  UNL1       -0.3829
      6 O          -6.3698    1.2126    0.8532 O.3     1  UNL1       -0.3864
      7 O          -6.1607   -0.8694   -1.1384 O.3     1  UNL1       -0.3865
      8 O          -2.2834   -2.3862   -1.9156 O.3     1  UNL1       -0.3924
      9 N           5.2958    0.5838   -0.1459 N.3     1  UNL1       -0.3018
     10 C           2.7210   -0.2634    0.8999 C.3     1  UNL1        0.0488
     11 C           3.6123   -1.1720    0.0459 C.3     1  UNL1       -0.0111
     12 C           4.3751   -0.2508   -0.9555 C.3     1  UNL1        0.0179
     13 C           1.6180   -0.9121    1.7505 C.3     1  UNL1        0.1677
     14 C           3.6279    0.6832    1.7156 C.3     1  UNL1       -0.0263
     15 C           1.8255    0.5358    0.0210 C.ar    1  UNL1        0.0116
     16 C           2.8286   -2.3134   -0.6141 C.3     1  UNL1       -0.0410
     17 C           3.4081    0.5530   -1.8950 C.3     1  UNL1       -0.0113
     18 C           4.6248    1.4507    0.8285 C.3     1  UNL1       -0.0002
     19 C           2.1203    0.9913   -1.2493 C.ar    1  UNL1       -0.0383
     20 C           2.0748   -3.1113    0.4437 C.3     1  UNL1        0.0099
     21 C           0.5991    0.7194    0.6263 C.ar    1  UNL1        0.1672
     22 C           1.0881   -2.2264    1.1716 C.2     1  UNL1        0.1744
     23 C           6.2624    1.3281   -0.9461 C.3     1  UNL1       -0.0125
     24 C           1.1403    1.7527   -1.8862 C.ar    1  UNL1       -0.0546
     25 C          -0.3765    1.4788    0.0222 C.ar    1  UNL1        0.1657
     26 C          -0.0910    2.0086   -1.2445 C.ar    1  UNL1       -0.0159
     27 C          -2.7319    1.2055   -0.0849 C.3     1  UNL1        0.2310
     28 C          -3.9750    1.5483    0.7356 C.3     1  UNL1        0.1454
     29 C          -5.2242    1.0245    0.0274 C.3     1  UNL1        0.1152
     30 C          -3.7543   -0.7257   -1.0295 C.3     1  UNL1        0.1140
     31 C          -5.0803   -0.4635   -0.3021 C.3     1  UNL1        0.1120
     32 C          -3.5121   -2.2179   -1.2327 C.3     1  UNL1        0.0731
     33 H           4.3520   -1.6564    0.7024 H       1  UNL1        0.0326
     34 H           4.9976   -0.8938   -1.5922 H       1  UNL1        0.0469
     35 H           1.9578   -1.1181    2.7719 H       1  UNL1        0.0823
     36 H           4.1914    0.0893    2.4480 H       1  UNL1        0.0287
     37 H           3.0380    1.4077    2.2920 H       1  UNL1        0.0287
     38 H           3.5233   -2.9764   -1.1432 H       1  UNL1        0.0273
     39 H           2.1209   -1.9368   -1.3610 H       1  UNL1        0.0273
     40 H           3.1399   -0.1075   -2.7305 H       1  UNL1        0.0329
     41 H           3.9102    1.4186   -2.3381 H       1  UNL1        0.0329
     42 H           4.1110    2.2793    0.3254 H       1  UNL1        0.0427
     43 H           5.3728    1.9093    1.4874 H       1  UNL1        0.0427
     44 H           2.7586   -3.5468    1.1799 H       1  UNL1        0.0343
     45 H           1.5267   -3.9296   -0.0355 H       1  UNL1        0.0343
     46 H           6.7783    0.6668   -1.6508 H       1  UNL1        0.0391
     47 H           7.0369    1.7567   -0.2999 H       1  UNL1        0.0391
     48 H           5.8072    2.1487   -1.5095 H       1  UNL1        0.0391
     49 H           1.3104    2.1413   -2.8867 H       1  UNL1        0.0622
     50 H          -0.8257    2.6181   -1.7653 H       1  UNL1        0.0655
     51 H          -2.8036    1.7027   -1.0610 H       1  UNL1        0.1084
     52 H          -4.0482    2.6244    0.9235 H       1  UNL1        0.0683
     53 H          -5.3987    1.5918   -0.8952 H       1  UNL1        0.0648
     54 H          -5.1467   -1.0567    0.6174 H       1  UNL1        0.0647
     55 H          -3.7503   -0.2457   -2.0177 H       1  UNL1        0.0647
     56 H          -4.3092   -2.6778   -1.8245 H       1  UNL1        0.0584
     57 H          -3.4316   -2.7336   -0.2699 H       1  UNL1        0.0584
     58 H          -3.5894   -0.0037    1.8813 H       1  UNL1        0.2102
     59 H          -6.4312    2.1616    1.0561 H       1  UNL1        0.2100
     60 H          -6.1130   -0.3552   -1.9623 H       1  UNL1        0.2100
     61 H          -2.1448   -3.3422   -2.0264 H       1  UNL1        0.2095
@<TRIPOS>BOND
     1     1    13    1
     2     1    21    1
     3     2    22    2
     4     3    25    1
     5     3    27    1
     6     4    27    1
     7     4    30    1
     8     5    28    1
     9     5    58    1
    10     6    29    1
    11     6    59    1
    12     7    31    1
    13     7    60    1
    14     8    32    1
    15     8    61    1
    16     9    12    1
    17     9    18    1
    18     9    23    1
    19    10    11    1
    20    10    13    1
    21    10    14    1
    22    10    15    1
    23    11    12    1
    24    11    16    1
    25    11    33    1
    26    12    17    1
    27    12    34    1
    28    13    22    1
    29    13    35    1
    30    14    18    1
    31    14    36    1
    32    14    37    1
    33    15    19   ar
    34    15    21   ar
    35    16    20    1
    36    16    38    1
    37    16    39    1
    38    17    19    1
    39    17    40    1
    40    17    41    1
    41    18    42    1
    42    18    43    1
    43    19    24   ar
    44    20    22    1
    45    20    44    1
    46    20    45    1
    47    21    25   ar
    48    23    46    1
    49    23    47    1
    50    23    48    1
    51    24    26   ar
    52    24    49    1
    53    25    26   ar
    54    26    50    1
    55    27    28    1
    56    27    51    1
    57    28    29    1
    58    28    52    1
    59    29    31    1
    60    29    53    1
    61    30    31    1
    62    30    32    1
    63    30    55    1
    64    31    54    1
    65    32    56    1
    66    32    57    1
@<TRIPOS>MOLECULE
165362217
 52 56 0 0 0
SMALL
GASTEIGER

@<TRIPOS>ATOM
      1 SI          4.6834    0.4158   -0.1860 Si      1  UNL1        0.0000
      2 O           0.6626   -1.3990   -1.1093 O.3     1  UNL1        0.0000
      3 O           0.0701   -3.6241    0.3278 O.2     1  UNL1        0.0000
      4 O           3.1401   -0.2374   -0.0894 O.3     1  UNL1        0.0000
      5 N          -3.6152    1.5382   -0.6292 N.3     1  UNL1        0.0000
      6 C          -1.5457   -0.5001   -0.6993 C.3     1  UNL1        0.0000
      7 C          -2.7965   -0.6139    0.1793 C.3     1  UNL1        0.0000
      8 C          -3.1876    0.8350    0.6049 C.3     1  UNL1        0.0000
      9 C          -0.7452   -1.7767   -1.0000 C.3     1  UNL1        0.0000
     10 C          -1.9147    0.2897   -1.9736 C.3     1  UNL1        0.0000
     11 C          -0.4725    0.2165    0.0407 C.ar    1  UNL1        0.0000
     12 C          -2.6077   -1.5885    1.3487 C.3     1  UNL1        0.0000
     13 C          -2.0523    1.5544    1.4154 C.3     1  UNL1        0.0000
     14 C          -2.5722    1.6447   -1.6551 C.3     1  UNL1        0.0000
     15 C          -0.6520    1.2158    0.9774 C.ar    1  UNL1        0.0000
     16 C          -2.1691   -2.9525    0.8282 C.3     1  UNL1        0.0000
     17 C          -0.8515   -2.8412    0.0948 C.2     1  UNL1        0.0000
     18 C           0.7640   -0.3001   -0.2887 C.ar    1  UNL1        0.0000
     19 C          -4.2470    2.8284   -0.3747 C.3     1  UNL1        0.0000
     20 C           0.5014    1.7735    1.5291 C.ar    1  UNL1        0.0000
     21 C           1.9151    0.2443    0.2327 C.ar    1  UNL1        0.0000
     22 C           1.7749    1.3017    1.1434 C.ar    1  UNL1        0.0000
     23 C           5.4988    0.4961    1.5061 C.3     1  UNL1        0.0000
     24 C           4.6503    2.1417   -0.9313 C.3     1  UNL1        0.0000
     25 C           5.7686   -0.6624   -1.2917 C.3     1  UNL1        0.0000
     26 H          -3.6161   -1.0292   -0.4279 H       1  UNL1        0.0000
     27 H          -4.0679    0.7646    1.2579 H       1  UNL1        0.0000
     28 H          -1.0584   -2.2430   -1.9411 H       1  UNL1        0.0000
     29 H          -2.6138   -0.3102   -2.5719 H       1  UNL1        0.0000
     30 H          -1.0355    0.4645   -2.6071 H       1  UNL1        0.0000
     31 H          -3.5532   -1.6940    1.8935 H       1  UNL1        0.0000
     32 H          -1.8690   -1.2167    2.0675 H       1  UNL1        0.0000
     33 H          -2.1467    1.2372    2.4627 H       1  UNL1        0.0000
     34 H          -2.1859    2.6406    1.4115 H       1  UNL1        0.0000
     35 H          -3.0104    2.0293   -2.5846 H       1  UNL1        0.0000
     36 H          -1.8034    2.3682   -1.3567 H       1  UNL1        0.0000
     37 H          -2.9114   -3.3780    0.1446 H       1  UNL1        0.0000
     38 H          -2.0470   -3.6441    1.6687 H       1  UNL1        0.0000
     39 H          -5.0429    2.7334    0.3720 H       1  UNL1        0.0000
     40 H          -3.5388    3.5895   -0.0325 H       1  UNL1        0.0000
     41 H          -4.7226    3.2024   -1.2885 H       1  UNL1        0.0000
     42 H           0.4283    2.5601    2.2754 H       1  UNL1        0.0000
     43 H           2.6400    1.7624    1.6120 H       1  UNL1        0.0000
     44 H           6.5228    0.8718    1.4208 H       1  UNL1        0.0000
     45 H           4.9469    1.1604    2.1767 H       1  UNL1        0.0000
     46 H           5.5350   -0.4981    1.9610 H       1  UNL1        0.0000
     47 H           4.1687    2.1258   -1.9135 H       1  UNL1        0.0000
     48 H           5.6675    2.5254   -1.0541 H       1  UNL1        0.0000
     49 H           4.1002    2.8358   -0.2898 H       1  UNL1        0.0000
     50 H           5.3463   -0.7217   -2.2990 H       1  UNL1        0.0000
     51 H           5.8390   -1.6756   -0.8856 H       1  UNL1        0.0000
     52 H           6.7777   -0.2460   -1.3624 H       1  UNL1        0.0000
@<TRIPOS>BOND
     1     1     4    1
     2     1    23    1
     3     1    24    1
     4     1    25    1
     5     2     9    1
     6     2    18    1
     7     3    17    2
     8     4    21    1
     9     5     8    1
    10     5    14    1
    11     5    19    1
    12     6     7    1
    13     6     9    1
    14     6    10    1
    15     6    11    1
    16     7     8    1
    17     7    12    1
    18     7    26    1
    19     8    13    1
    20     8    27    1
    21     9    17    1
    22     9    28    1
    23    10    14    1
    24    10    29    1
    25    10    30    1
    26    11    15   ar
    27    11    18   ar
    28    12    16    1
    29    12    31    1
    30    12    32    1
    31    13    15    1
    32    13    33    1
    33    13    34    1
    34    14    35    1
    35    14    36    1
    36    15    20   ar
    37    16    17    1
    38    16    37    1
    39    16    38    1
    40    18    21   ar
    41    19    39    1
    42    19    40    1
    43    19    41    1
    44    20    22   ar
    45    20    42    1
    46    21    22   ar
    47    22    43    1
    48    23    44    1
    49    23    45    1
    50    23    46    1
    51    24    47    1
    52    24    48    1
    53    24    49    1
    54    25    50    1
    55    25    51    1
    56    25    52    1
@<TRIPOS>MOLECULE
5288826
 40 44 0 0 0
SMALL
GASTEIGER

@<TRIPOS>ATOM
      1 O          -1.9930   -0.4740    1.2005 O.3     1  UNL1       -0.4811
      2 O          -2.7826   -2.5168   -0.2218 O.3     1  UNL1       -0.3841
      3 O          -3.6220    1.8421    0.5579 O.3     1  UNL1       -0.5033
      4 N           3.1777   -0.0101    0.4474 N.3     1  UNL1       -0.3015
      5 C           0.3699   -0.7149    0.6616 C.3     1  UNL1        0.0480
      6 C           1.2913   -1.3046   -0.4170 C.3     1  UNL1        0.0064
      7 C           2.3441   -0.2023   -0.7640 C.3     1  UNL1        0.0213
      8 C          -0.9377   -1.4750    0.9848 C.3     1  UNL1        0.1399
      9 C           1.1988   -0.3907    1.9201 C.3     1  UNL1       -0.0263
     10 C          -0.2516    0.5302    0.1205 C.ar    1  UNL1        0.0116
     11 C           1.6887    1.1052   -1.3279 C.3     1  UNL1       -0.0110
     12 C           2.4315    0.4754    1.6126 C.3     1  UNL1       -0.0001
     13 C           0.3384    1.4306   -0.7480 C.ar    1  UNL1       -0.0383
     14 C          -1.3631   -2.5067   -0.0924 C.3     1  UNL1        0.1110
     15 C           0.5066   -1.8183   -1.5971 C.2     1  UNL1       -0.0799
     16 C          -1.5672    0.6306    0.5136 C.ar    1  UNL1        0.1663
     17 C          -0.7155   -2.3492   -1.4425 C.2     1  UNL1       -0.0559
     18 C           4.3733    0.7916    0.2084 C.3     1  UNL1       -0.0124
     19 C          -0.4184    2.5415   -1.1246 C.ar    1  UNL1       -0.0546
     20 C          -2.3310    1.7217    0.1620 C.ar    1  UNL1        0.1588
     21 C          -1.7382    2.6936   -0.6541 C.ar    1  UNL1       -0.0162
     22 H           1.8278   -2.1759   -0.0118 H       1  UNL1        0.0368
     23 H           3.0029   -0.6035   -1.5465 H       1  UNL1        0.0472
     24 H          -0.8451   -2.0128    1.9373 H       1  UNL1        0.0772
     25 H           1.5366   -1.3335    2.3712 H       1  UNL1        0.0287
     26 H           0.5899    0.1174    2.6790 H       1  UNL1        0.0287
     27 H           1.5474    0.9596   -2.4075 H       1  UNL1        0.0329
     28 H           2.3530    1.9680   -1.2194 H       1  UNL1        0.0329
     29 H           2.1271    1.5205    1.4760 H       1  UNL1        0.0427
     30 H           3.0801    0.4584    2.4975 H       1  UNL1        0.0427
     31 H          -1.0772   -3.5067    0.2593 H       1  UNL1        0.0675
     32 H           0.9601   -1.7947   -2.5831 H       1  UNL1        0.0573
     33 H          -1.2300   -2.7505   -2.3109 H       1  UNL1        0.0596
     34 H           4.1500    1.8479    0.0287 H       1  UNL1        0.0391
     35 H           4.9380    0.4055   -0.6472 H       1  UNL1        0.0391
     36 H           5.0444    0.7352    1.0730 H       1  UNL1        0.0391
     37 H          -0.0062    3.2824   -1.8043 H       1  UNL1        0.0622
     38 H          -2.3121    3.5638   -0.9645 H       1  UNL1        0.0655
     39 H          -3.1557   -2.6446    0.6672 H       1  UNL1        0.2104
     40 H          -3.8483    1.0686    1.1031 H       1  UNL1        0.2923
@<TRIPOS>BOND
     1     1     8    1
     2     1    16    1
     3     2    14    1
     4     2    39    1
     5     3    20    1
     6     3    40    1
     7     4     7    1
     8     4    12    1
     9     4    18    1
    10     5     6    1
    11     5     8    1
    12     5     9    1
    13     5    10    1
    14     6     7    1
    15     6    15    1
    16     6    22    1
    17     7    11    1
    18     7    23    1
    19     8    14    1
    20     8    24    1
    21     9    12    1
    22     9    25    1
    23     9    26    1
    24    10    13   ar
    25    10    16   ar
    26    11    13    1
    27    11    27    1
    28    11    28    1
    29    12    29    1
    30    12    30    1
    31    13    19   ar
    32    14    17    1
    33    14    31    1
    34    15    17    2
    35    15    32    1
    36    16    20   ar
    37    17    33    1
    38    18    34    1
    39    18    35    1
    40    18    36    1
    41    19    21   ar
    42    19    37    1
    43    20    21   ar
    44    21    38    1
@<TRIPOS>MOLECULE
5359421
 42 46 0 0 0
SMALL
GASTEIGER

@<TRIPOS>ATOM
      1 O           1.9265    0.5930    1.3454 O.3     1  UNL1       -0.4814
      2 O           2.1790    2.0129   -0.9462 O.3     1  UNL1       -0.3881
      3 O           3.7856   -1.5397    0.6110 O.3     1  UNL1       -0.5033
      4 N          -3.0914   -0.4392    0.4480 N.3     1  UNL1       -0.3018
      5 C          -0.4063    0.6491    0.7028 C.3     1  UNL1        0.0443
      6 C          -1.4519    1.2223   -0.2555 C.3     1  UNL1       -0.0117
      7 C           0.8154    1.5151    1.0644 C.3     1  UNL1        0.1360
      8 C          -2.3322    0.0292   -0.7378 C.3     1  UNL1        0.0178
      9 C          -1.1516    0.0987    1.9419 C.3     1  UNL1       -0.0266
     10 C           0.3473   -0.4622    0.0685 C.ar    1  UNL1        0.0113
     11 C          -0.8443    2.0689   -1.3759 C.3     1  UNL1       -0.0454
     12 C           1.2467    2.5511   -0.0068 C.3     1  UNL1        0.0928
     13 C          -1.4988   -1.0801   -1.4714 C.3     1  UNL1       -0.0113
     14 C           0.0671    3.1481   -0.7784 C.3     1  UNL1       -0.0230
     15 C          -2.2565   -0.9054    1.5608 C.3     1  UNL1       -0.0002
     16 C          -0.1326   -1.3307   -0.8910 C.ar    1  UNL1       -0.0383
     17 C           1.6435   -0.4932    0.5457 C.ar    1  UNL1        0.1663
     18 C          -4.1387   -1.4025    0.1263 C.3     1  UNL1       -0.0125
     19 C           0.7375   -2.3334   -1.3176 C.ar    1  UNL1       -0.0546
     20 C           2.5126   -1.4837    0.1506 C.ar    1  UNL1        0.1588
     21 C           2.0431   -2.4183   -0.7846 C.ar    1  UNL1       -0.0162
     22 H          -2.0966    1.9145    0.3093 H       1  UNL1        0.0326
     23 H           0.6007    2.0657    1.9897 H       1  UNL1        0.0768
     24 H          -3.0648    0.4227   -1.4552 H       1  UNL1        0.0469
     25 H          -1.6083    0.9385    2.4830 H       1  UNL1        0.0287
     26 H          -0.4632   -0.3848    2.6472 H       1  UNL1        0.0287
     27 H          -1.6500    2.5535   -1.9406 H       1  UNL1        0.0270
     28 H          -0.2917    1.4562   -2.0950 H       1  UNL1        0.0270
     29 H           1.7891    3.3579    0.4991 H       1  UNL1        0.0630
     30 H          -1.3516   -0.7495   -2.5083 H       1  UNL1        0.0329
     31 H          -2.0538   -2.0218   -1.5261 H       1  UNL1        0.0329
     32 H           0.4407    3.7770   -1.5953 H       1  UNL1        0.0291
     33 H          -0.5194    3.7910   -0.1109 H       1  UNL1        0.0291
     34 H          -1.8064   -1.8786    1.3284 H       1  UNL1        0.0427
     35 H          -2.8838   -1.0628    2.4472 H       1  UNL1        0.0427
     36 H          -3.7424   -2.3812   -0.1621 H       1  UNL1        0.0391
     37 H          -4.7748   -1.0322   -0.6850 H       1  UNL1        0.0391
     38 H          -4.7947   -1.5501    0.9917 H       1  UNL1        0.0391
     39 H           0.4237   -3.0480   -2.0738 H       1  UNL1        0.0622
     40 H           1.7348    1.3275   -1.4705 H       1  UNL1        0.2099
     41 H           2.6981   -3.2117   -1.1383 H       1  UNL1        0.0655
     42 H           4.2330   -2.3021    0.2051 H       1  UNL1        0.2923
@<TRIPOS>BOND
     1     1     7    1
     2     1    17    1
     3     2    12    1
     4     2    40    1
     5     3    20    1
     6     3    42    1
     7     4     8    1
     8     4    15    1
     9     4    18    1
    10     5     6    1
    11     5     7    1
    12     5     9    1
    13     5    10    1
    14     6     8    1
    15     6    11    1
    16     6    22    1
    17     7    12    1
    18     7    23    1
    19     8    13    1
    20     8    24    1
    21     9    15    1
    22     9    25    1
    23     9    26    1
    24    10    16   ar
    25    10    17   ar
    26    11    14    1
    27    11    27    1
    28    11    28    1
    29    12    14    1
    30    12    29    1
    31    13    16    1
    32    13    30    1
    33    13    31    1
    34    14    32    1
    35    14    33    1
    36    15    34    1
    37    15    35    1
    38    16    19   ar
    39    17    20   ar
    40    18    36    1
    41    18    37    1
    42    18    38    1
    43    19    21   ar
    44    19    39    1
    45    20    21   ar
    46    21    41    1
@<TRIPOS>MOLECULE
131769955
 42 46 0 0 0
SMALL
GASTEIGER

@<TRIPOS>ATOM
      1 O          -1.6964    1.2909   -1.1068 O.3     1  UNL1       -0.4814
      2 O           0.9628    3.5512    0.0122 O.3     1  UNL1       -0.3881
      3 O          -4.1781   -0.1438   -0.6501 O.3     1  UNL1       -0.5033
      4 N           2.7533   -1.4883   -0.3329 N.3     1  UNL1       -0.3018
      5 C           0.5231    0.4319   -0.5719 C.3     1  UNL1        0.0443
      6 C           1.5272    0.5216    0.5792 C.3     1  UNL1       -0.0117
      7 C          -0.3009    1.6954   -0.8952 C.3     1  UNL1        0.1360
      8 C           2.0391   -0.9319    0.8441 C.3     1  UNL1        0.0178
      9 C           1.2254   -0.1302   -1.8269 C.3     1  UNL1       -0.0266
     10 C          -0.5861   -0.4590   -0.1408 C.ar    1  UNL1        0.0113
     11 C           0.9785    1.2109    1.8477 C.3     1  UNL1       -0.0454
     12 C          -0.2208    2.7750    0.1977 C.3     1  UNL1        0.0928
     13 C           0.8809   -1.9141    1.2530 C.3     1  UNL1       -0.0113
     14 C          -0.1788    2.1911    1.6088 C.3     1  UNL1       -0.0230
     15 C           1.9533   -1.4571   -1.5647 C.3     1  UNL1       -0.0002
     16 C          -0.4638   -1.5858    0.6543 C.ar    1  UNL1       -0.0383
     17 C          -1.8032    0.0526   -0.5306 C.ar    1  UNL1        0.1663
     18 C           4.0674   -0.8785   -0.5314 C.3     1  UNL1       -0.0125
     19 C          -1.6345   -2.2878    0.9430 C.ar    1  UNL1       -0.0546
     20 C          -2.9713   -0.6254   -0.2591 C.ar    1  UNL1        0.1588
     21 C          -2.8772   -1.8187    0.4703 C.ar    1  UNL1       -0.0162
     22 H           2.3689    1.1452    0.2493 H       1  UNL1        0.0326
     23 H           0.0343    2.1344   -1.8437 H       1  UNL1        0.0768
     24 H           2.7444   -0.9198    1.6860 H       1  UNL1        0.0469
     25 H           1.9538    0.6083   -2.1869 H       1  UNL1        0.0287
     26 H           0.5069   -0.2813   -2.6432 H       1  UNL1        0.0287
     27 H           1.8098    1.7546    2.3167 H       1  UNL1        0.0270
     28 H           0.6614    0.4825    2.6025 H       1  UNL1        0.0270
     29 H          -1.0779    3.4540    0.1211 H       1  UNL1        0.0630
     30 H           0.7734   -1.8657    2.3448 H       1  UNL1        0.0329
     31 H           1.1506   -2.9507    1.0146 H       1  UNL1        0.0329
     32 H          -1.1284    1.6860    1.8221 H       1  UNL1        0.0291
     33 H          -0.0939    3.0029    2.3422 H       1  UNL1        0.0291
     34 H           1.2155   -2.2675   -1.5196 H       1  UNL1        0.0427
     35 H           2.5746   -1.7082   -2.4341 H       1  UNL1        0.0427
     36 H           4.6654   -0.9379    0.3846 H       1  UNL1        0.0391
     37 H           4.0157    0.1695   -0.8420 H       1  UNL1        0.0391
     38 H           4.6262   -1.4275   -1.2979 H       1  UNL1        0.0391
     39 H          -1.6015   -3.1827    1.5585 H       1  UNL1        0.0622
     40 H           0.9050    3.9697   -0.8636 H       1  UNL1        0.2099
     41 H          -3.7750   -2.3811    0.7168 H       1  UNL1        0.0655
     42 H          -4.8714   -0.7595   -0.3562 H       1  UNL1        0.2923
@<TRIPOS>BOND
     1     1     7    1
     2     1    17    1
     3     2    12    1
     4     2    40    1
     5     3    20    1
     6     3    42    1
     7     4     8    1
     8     4    15    1
     9     4    18    1
    10     5     6    1
    11     5     7    1
    12     5     9    1
    13     5    10    1
    14     6     8    1
    15     6    11    1
    16     6    22    1
    17     7    12    1
    18     7    23    1
    19     8    13    1
    20     8    24    1
    21     9    15    1
    22     9    25    1
    23     9    26    1
    24    10    16   ar
    25    10    17   ar
    26    11    14    1
    27    11    27    1
    28    11    28    1
    29    12    14    1
    30    12    29    1
    31    13    16    1
    32    13    30    1
    33    13    31    1
    34    14    32    1
    35    14    33    1
    36    15    34    1
    37    15    35    1
    38    16    19   ar
    39    17    20   ar
    40    18    36    1
    41    18    37    1
    42    18    38    1
    43    19    21   ar
    44    19    39    1
    45    20    21   ar
    46    21    41    1
@<TRIPOS>MOLECULE
589081
 21 22 0 0 0
SMALL
GASTEIGER

@<TRIPOS>ATOM
      1 O          -3.3909    1.1814    0.0005 O.2     1  UNL1       -0.2908
      2 N          -0.4906    1.0815    0.0003 N.ar    1  UNL1       -0.3519
      3 C           0.8219    0.6658    0.0001 C.ar    1  UNL1        0.0470
      4 C           0.8106   -0.7307    0.0004 C.ar    1  UNL1        0.0003
      5 C          -1.3287   -0.0010    0.0006 C.ar    1  UNL1        0.0829
      6 C          -0.5530   -1.1373    0.0007 C.ar    1  UNL1       -0.0258
      7 C           2.0061    1.4115   -0.0004 C.ar    1  UNL1       -0.0378
      8 C           2.0403   -1.4187    0.0003 C.ar    1  UNL1       -0.0526
      9 C          -2.7542    0.0989   -0.0003 C.2     1  UNL1        0.1761
     10 C           3.2136    0.7074   -0.0006 C.ar    1  UNL1       -0.0598
     11 C           3.2328   -0.6860   -0.0003 C.ar    1  UNL1       -0.0611
     12 C          -3.6079   -1.1728   -0.0013 C.3     1  UNL1        0.0001
     13 H          -0.7886    2.0474    0.0000 H       1  UNL1        0.1660
     14 H          -0.9135   -2.1574    0.0007 H       1  UNL1        0.0646
     15 H           1.9922    2.4963   -0.0007 H       1  UNL1        0.0638
     16 H           2.0698   -2.5046    0.0006 H       1  UNL1        0.0624
     17 H           4.1517    1.2565   -0.0011 H       1  UNL1        0.0618
     18 H           4.1841   -1.2115   -0.0004 H       1  UNL1        0.0618
     19 H          -3.3945   -1.7597   -0.8987 H       1  UNL1        0.0310
     20 H          -4.6689   -0.9058   -0.0027 H       1  UNL1        0.0310
     21 H          -3.3967   -1.7595    0.8967 H       1  UNL1        0.0310
@<TRIPOS>BOND
     1     1     9    2
     2     2     3   ar
     3     2     5   ar
     4     2    13    1
     5     3     4   ar
     6     3     7   ar
     7     4     6   ar
     8     4     8   ar
     9     5     6   ar
    10     5     9    1
    11     6    14    1
    12     7    10   ar
    13     7    15    1
    14     8    11   ar
    15     8    16    1
    16     9    12    1
    17    10    11   ar
    18    10    17    1
    19    11    18    1
    20    12    19    1
    21    12    20    1
    22    12    21    1
@<TRIPOS>MOLECULE
625177
 45 49 0 0 0
SMALL
GASTEIGER

@<TRIPOS>ATOM
      1 O          -1.2219   -1.2076    0.9271 O.3     1  UNL1       -0.4765
      2 O          -0.6242   -3.5814   -0.2460 O.2     1  UNL1       -0.2934
      3 O          -3.4679    0.0137   -0.4831 O.3     1  UNL1       -0.4223
      4 O          -3.6738    1.7092    1.1176 O.2     1  UNL1       -0.2507
      5 N           3.2848    1.4036    0.7605 N.3     1  UNL1       -0.3018
      6 C           1.0790   -0.4870    0.7288 C.3     1  UNL1        0.0488
      7 C           2.4146   -0.7544    0.0258 C.3     1  UNL1       -0.0111
      8 C           2.9582    0.6251   -0.4590 C.3     1  UNL1        0.0179
      9 C           0.1577   -1.6804    1.0252 C.3     1  UNL1        0.1677
     10 C           1.3487    0.3854    1.9736 C.3     1  UNL1       -0.0263
     11 C           0.1573    0.2286   -0.1939 C.ar    1  UNL1        0.0116
     12 C           2.2973   -1.8125   -1.0785 C.3     1  UNL1       -0.0410
     13 C           1.9837    1.3418   -1.4591 C.3     1  UNL1       -0.0113
     14 C           2.1368    1.6638    1.6355 C.3     1  UNL1       -0.0002
     15 C           0.5201    1.1301   -1.1756 C.ar    1  UNL1       -0.0383
     16 C           1.7017   -3.0964   -0.5122 C.3     1  UNL1        0.0099
     17 C           0.3171   -2.8403    0.0390 C.2     1  UNL1        0.1744
     18 C          -1.1439   -0.1796    0.0169 C.ar    1  UNL1        0.1678
     19 C           4.0361    2.6242    0.4881 C.3     1  UNL1       -0.0125
     20 C          -0.5153    1.7092   -1.9095 C.ar    1  UNL1       -0.0545
     21 C          -2.1815    0.3887   -0.6857 C.ar    1  UNL1        0.1733
     22 C          -1.8567    1.3527   -1.6510 C.ar    1  UNL1       -0.0153
     23 C          -4.1493    0.7773    0.4825 C.2     1  UNL1        0.3093
     24 C          -5.5586    0.2862    0.6329 C.3     1  UNL1        0.0336
     25 H           3.1231   -1.1660    0.7616 H       1  UNL1        0.0326
     26 H           3.9030    0.4436   -0.9889 H       1  UNL1        0.0469
     27 H           0.3210   -2.0823    2.0318 H       1  UNL1        0.0823
     28 H           1.9251   -0.2030    2.7002 H       1  UNL1        0.0287
     29 H           0.4147    0.6692    2.4758 H       1  UNL1        0.0287
     30 H           3.2912   -2.0235   -1.4903 H       1  UNL1        0.0273
     31 H           1.6790   -1.4588   -1.9110 H       1  UNL1        0.0273
     32 H           2.1800    0.9306   -2.4585 H       1  UNL1        0.0329
     33 H           2.1944    2.4139   -1.5225 H       1  UNL1        0.0329
     34 H           1.4643    2.4057    1.1873 H       1  UNL1        0.0427
     35 H           2.4870    2.0991    2.5800 H       1  UNL1        0.0427
     36 H           2.3236   -3.5067    0.2903 H       1  UNL1        0.0343
     37 H           1.6315   -3.8491   -1.3049 H       1  UNL1        0.0343
     38 H           4.4242    3.0450    1.4226 H       1  UNL1        0.0391
     39 H           3.4323    3.3963    0.0008 H       1  UNL1        0.0391
     40 H           4.9070    2.4147   -0.1425 H       1  UNL1        0.0391
     41 H          -0.2968    2.4239   -2.6983 H       1  UNL1        0.0622
     42 H          -2.6460    1.8165   -2.2386 H       1  UNL1        0.0656
     43 H          -6.0861    0.3822   -0.3193 H       1  UNL1        0.0342
     44 H          -6.0762    0.8920    1.3821 H       1  UNL1        0.0342
     45 H          -5.5525   -0.7541    0.9673 H       1  UNL1        0.0342
@<TRIPOS>BOND
     1     1     9    1
     2     1    18    1
     3     2    17    2
     4     3    21    1
     5     3    23    1
     6     4    23    2
     7     5     8    1
     8     5    14    1
     9     5    19    1
    10     6     7    1
    11     6     9    1
    12     6    10    1
    13     6    11    1
    14     7     8    1
    15     7    12    1
    16     7    25    1
    17     8    13    1
    18     8    26    1
    19     9    17    1
    20     9    27    1
    21    10    14    1
    22    10    28    1
    23    10    29    1
    24    11    15   ar
    25    11    18   ar
    26    12    16    1
    27    12    30    1
    28    12    31    1
    29    13    15    1
    30    13    32    1
    31    13    33    1
    32    14    34    1
    33    14    35    1
    34    15    20   ar
    35    16    17    1
    36    16    36    1
    37    16    37    1
    38    18    21   ar
    39    19    38    1
    40    19    39    1
    41    19    40    1
    42    20    22   ar
    43    20    41    1
    44    21    22   ar
    45    22    42    1
    46    23    24    1
    47    24    43    1
    48    24    44    1
    49    24    45    1
@<TRIPOS>MOLECULE
4287520
 24 24 0 0 0
SMALL
GASTEIGER

@<TRIPOS>ATOM
      1 O           0.5609    1.8814    0.0053 O.2     1  UNL1       -0.2920
      2 N           5.2386   -0.2339   -0.0538 N.3     1  UNL1       -0.3300
      3 N          -2.6441   -1.5956    0.0013 N.ar    1  UNL1       -0.2626
      4 C           2.8316    0.2252    0.0248 C.3     1  UNL1       -0.0336
      5 C           1.4223   -0.3724    0.0611 C.3     1  UNL1        0.0116
      6 C           3.9175   -0.8516   -0.0236 C.3     1  UNL1       -0.0065
      7 C           0.3200    0.6770    0.0311 C.2     1  UNL1        0.1647
      8 C          -1.0992    0.2212    0.0112 C.ar    1  UNL1        0.0355
      9 C          -2.1091    1.1480   -0.0160 C.ar    1  UNL1       -0.0484
     10 C          -1.3805   -1.1157    0.0193 C.ar    1  UNL1        0.0380
     11 C          -3.4229    0.6928   -0.0351 C.ar    1  UNL1       -0.0429
     12 C          -3.6351   -0.6763   -0.0256 C.ar    1  UNL1        0.0276
     13 H           2.9749    0.8623    0.9072 H       1  UNL1        0.0282
     14 H           2.9237    0.8809   -0.8511 H       1  UNL1        0.0282
     15 H           1.3149   -0.9662    0.9759 H       1  UNL1        0.0345
     16 H           1.3029   -1.0233   -0.8126 H       1  UNL1        0.0345
     17 H           3.7937   -1.4785   -0.9130 H       1  UNL1        0.0422
     18 H           3.8457   -1.5042    0.8530 H       1  UNL1        0.0422
     19 H          -1.9210    2.2168   -0.0230 H       1  UNL1        0.0625
     20 H           5.3571    0.3612    0.7654 H       1  UNL1        0.1182
     21 H           5.3087    0.3848   -0.8610 H       1  UNL1        0.1182
     22 H          -0.6301   -1.8960    0.0428 H       1  UNL1        0.0836
     23 H          -4.2545    1.3877   -0.0568 H       1  UNL1        0.0633
     24 H          -4.6412   -1.0824   -0.0397 H       1  UNL1        0.0829
@<TRIPOS>BOND
     1     1     7    2
     2     2     6    1
     3     2    20    1
     4     2    21    1
     5     3    10   ar
     6     3    12   ar
     7     4     5    1
     8     4     6    1
     9     4    13    1
    10     4    14    1
    11     5     7    1
    12     5    15    1
    13     5    16    1
    14     6    17    1
    15     6    18    1
    16     7     8    1
    17     8     9   ar
    18     8    10   ar
    19     9    11   ar
    20     9    19    1
    21    10    22    1
    22    11    12   ar
    23    11    23    1
    24    12    24    1
@<TRIPOS>MOLECULE
5459823
 38 42 0 0 0
SMALL
GASTEIGER

@<TRIPOS>ATOM
      1 O           1.9702    0.4143    1.2692 O.3     1  UNL1       -0.4761
      2 O           2.6247    2.7402   -0.1555 O.2     1  UNL1       -0.2887
      3 O           3.5992   -1.9058    0.5558 O.3     1  UNL1       -0.5033
      4 N          -3.1496   -0.0663    0.4839 N.3     1  UNL1       -0.3015
      5 C          -0.3565    0.6904    0.6822 C.3     1  UNL1        0.0525
      6 C          -1.3198    1.3448   -0.3098 C.3     1  UNL1        0.0070
      7 C          -2.3472    0.2424   -0.7256 C.3     1  UNL1        0.0213
      8 C          -1.1484    0.2957    1.9453 C.3     1  UNL1       -0.0260
      9 C           0.9519    1.4275    0.9832 C.3     1  UNL1        0.1719
     10 C           0.2608   -0.5248    0.0815 C.ar    1  UNL1        0.0119
     11 C          -1.6669   -0.9965   -1.4080 C.3     1  UNL1       -0.0110
     12 C          -2.3691   -0.5827    1.6139 C.3     1  UNL1       -0.0001
     13 C          -0.3253   -1.3702   -0.8387 C.ar    1  UNL1       -0.0383
     14 C          -0.6123    2.0235   -1.4490 C.2     1  UNL1       -0.0750
     15 C           1.5645   -0.6622    0.5142 C.ar    1  UNL1        0.1668
     16 C           1.4934    2.2550   -0.1847 C.2     1  UNL1        0.1969
     17 C           0.6541    2.4521   -1.3952 C.2     1  UNL1       -0.0190
     18 C          -4.3129   -0.9041    0.2126 C.3     1  UNL1       -0.0124
     19 C           0.4298   -2.4676   -1.2524 C.ar    1  UNL1       -0.0546
     20 C           2.3227   -1.7442    0.1309 C.ar    1  UNL1        0.1588
     21 C           1.7366   -2.6614   -0.7536 C.ar    1  UNL1       -0.0162
     22 H          -1.8727    2.1517    0.1959 H       1  UNL1        0.0368
     23 H          -3.0345    0.6836   -1.4606 H       1  UNL1        0.0472
     24 H          -1.4945    1.2090    2.4477 H       1  UNL1        0.0288
     25 H          -0.5160   -0.2355    2.6684 H       1  UNL1        0.0288
     26 H           0.8570    2.0923    1.8494 H       1  UNL1        0.0827
     27 H          -1.5067   -0.7414   -2.4643 H       1  UNL1        0.0329
     28 H          -2.3274   -1.8691   -1.3991 H       1  UNL1        0.0329
     29 H          -2.0420   -1.6124    1.4228 H       1  UNL1        0.0427
     30 H          -3.0032   -0.6239    2.5085 H       1  UNL1        0.0427
     31 H          -1.1881    2.2245   -2.3487 H       1  UNL1        0.0577
     32 H           1.1028    2.9688   -2.2363 H       1  UNL1        0.0650
     33 H          -4.0458   -1.9375   -0.0298 H       1  UNL1        0.0391
     34 H          -4.9052   -0.4952   -0.6133 H       1  UNL1        0.0391
     35 H          -4.9739   -0.9266    1.0864 H       1  UNL1        0.0391
     36 H           0.0267   -3.1703   -1.9767 H       1  UNL1        0.0622
     37 H           2.3014   -3.5256   -1.0969 H       1  UNL1        0.0655
     38 H           3.9588   -2.7211    0.1658 H       1  UNL1        0.2923
@<TRIPOS>BOND
     1     1     9    1
     2     1    15    1
     3     2    16    2
     4     3    20    1
     5     3    38    1
     6     4     7    1
     7     4    12    1
     8     4    18    1
     9     5     6    1
    10     5     8    1
    11     5     9    1
    12     5    10    1
    13     6     7    1
    14     6    14    1
    15     6    22    1
    16     7    11    1
    17     7    23    1
    18     8    12    1
    19     8    24    1
    20     8    25    1
    21     9    16    1
    22     9    26    1
    23    10    13   ar
    24    10    15   ar
    25    11    13    1
    26    11    27    1
    27    11    28    1
    28    12    29    1
    29    12    30    1
    30    13    19   ar
    31    14    17    2
    32    14    31    1
    33    15    20   ar
    34    16    17    1
    35    17    32    1
    36    18    33    1
    37    18    34    1
    38    18    35    1
    39    19    21   ar
    40    19    36    1
    41    20    21   ar
    42    21    37    1
@<TRIPOS>MOLECULE
44828689
 15 15 0 0 0
SMALL
GASTEIGER

@<TRIPOS>ATOM
      1 CL          3.7181    0.0857    0.0000 Cl      1  UNL1       -0.0604
      2 O          -2.7289   -1.1839   -0.0004 O.2     1  UNL1       -0.2907
      3 N          -0.0959    1.1729    0.0000 N.ar    1  UNL1       -0.2476
      4 N           1.4442   -1.1711    0.0001 N.ar    1  UNL1       -0.2398
      5 C          -0.6597   -0.0512    0.0001 C.ar    1  UNL1        0.1239
      6 C          -2.1090   -0.0991    0.0002 C.2     1  UNL1        0.1796
      7 C           0.0967   -1.2026    0.0002 C.ar    1  UNL1        0.0580
      8 C          -2.9249    1.1919    0.0001 C.3     1  UNL1        0.0002
      9 C           1.2515    1.2044   -0.0002 C.ar    1  UNL1        0.0652
     10 C           2.0079    0.0530   -0.0001 C.ar    1  UNL1        0.1472
     11 H          -0.3395   -2.1947    0.0004 H       1  UNL1        0.0853
     12 H          -2.7029    1.7696   -0.9008 H       1  UNL1        0.0310
     13 H          -2.6973    1.7736    0.8972 H       1  UNL1        0.0310
     14 H          -3.9917    0.9491    0.0043 H       1  UNL1        0.0310
     15 H           1.6952    2.1931   -0.0004 H       1  UNL1        0.0860
@<TRIPOS>BOND
     1     1    10    1
     2     2     6    2
     3     3     5   ar
     4     3     9   ar
     5     4     7   ar
     6     4    10   ar
     7     5     6    1
     8     5     7   ar
     9     6     8    1
    10     7    11    1
    11     8    12    1
    12     8    13    1
    13     8    14    1
    14     9    10   ar
    15     9    15    1
@<TRIPOS>MOLECULE
71587704
 41 45 0 0 0
SMALL
GASTEIGER

@<TRIPOS>ATOM
      1 O          -1.8256   -0.6426    1.4296 O.3     1  UNL1       -0.4765
      2 O           0.2715   -1.2241   -2.3235 O.3     1  UNL1       -0.3910
      3 O          -2.0077   -2.9663    0.0570 O.2     1  UNL1       -0.2934
      4 O          -3.9940    1.1357    0.6187 O.3     1  UNL1       -0.5033
      5 N           2.9897    1.1317    0.3571 N.3     1  UNL1       -0.3017
      6 C           0.4846   -0.3810    0.7616 C.3     1  UNL1        0.0511
      7 C           1.5568   -0.8489   -0.2260 C.3     1  UNL1        0.0149
      8 C           2.2720    0.4380   -0.7478 C.3     1  UNL1        0.0202
      9 C          -0.5875   -1.3868    1.2048 C.3     1  UNL1        0.1679
     10 C           1.1987    0.2908    1.9582 C.3     1  UNL1       -0.0262
     11 C          -0.4276    0.5954    0.1120 C.ar    1  UNL1        0.0117
     12 C           1.0514   -1.8292   -1.3019 C.3     1  UNL1        0.0672
     13 C           1.3062    1.4642   -1.4421 C.3     1  UNL1       -0.0113
     14 C           2.1379    1.4296    1.5196 C.3     1  UNL1       -0.0002
     15 C          -0.0850    1.5085   -0.8670 C.ar    1  UNL1       -0.0383
     16 C           0.2726   -2.9800   -0.6645 C.3     1  UNL1        0.0360
     17 C          -0.8854   -2.4708    0.1687 C.2     1  UNL1        0.1768
     18 C          -1.7147    0.4339    0.5816 C.ar    1  UNL1        0.1668
     19 C           4.2127    0.4366    0.7565 C.3     1  UNL1       -0.0125
     20 C          -1.0974    2.3550   -1.3181 C.ar    1  UNL1       -0.0546
     21 C          -2.7256    1.2668    0.1596 C.ar    1  UNL1        0.1588
     22 C          -2.4036    2.2435   -0.7941 C.ar    1  UNL1       -0.0162
     23 H           2.2837   -1.4463    0.3427 H       1  UNL1        0.0351
     24 H           3.0165    0.1566   -1.5045 H       1  UNL1        0.0469
     25 H          -0.3109   -1.8945    2.1360 H       1  UNL1        0.0823
     26 H           1.7827   -0.4664    2.4977 H       1  UNL1        0.0287
     27 H           0.4741    0.6928    2.6784 H       1  UNL1        0.0287
     28 H           1.9300   -2.2485   -1.8079 H       1  UNL1        0.0601
     29 H           1.2203    1.1860   -2.5003 H       1  UNL1        0.0329
     30 H           1.7439    2.4705   -1.4243 H       1  UNL1        0.0329
     31 H           1.5362    2.3157    1.2829 H       1  UNL1        0.0427
     32 H           2.7490    1.7434    2.3759 H       1  UNL1        0.0427
     33 H           0.9181   -3.5762   -0.0105 H       1  UNL1        0.0368
     34 H          -0.1330   -3.6383   -1.4411 H       1  UNL1        0.0368
     35 H           4.8530    0.2452   -0.1117 H       1  UNL1        0.0391
     36 H           4.0240   -0.5147    1.2630 H       1  UNL1        0.0391
     37 H           4.7992    1.0661    1.4355 H       1  UNL1        0.0391
     38 H          -0.8935    3.0939   -2.0884 H       1  UNL1        0.0622
     39 H           0.0344   -1.9149   -2.9652 H       1  UNL1        0.2098
     40 H          -3.1726    2.9166   -1.1669 H       1  UNL1        0.0655
     41 H          -4.5526    1.8095    0.1943 H       1  UNL1        0.2923
@<TRIPOS>BOND
     1     1     9    1
     2     1    18    1
     3     2    12    1
     4     2    39    1
     5     3    17    2
     6     4    21    1
     7     4    41    1
     8     5     8    1
     9     5    14    1
    10     5    19    1
    11     6     7    1
    12     6     9    1
    13     6    10    1
    14     6    11    1
    15     7     8    1
    16     7    12    1
    17     7    23    1
    18     8    13    1
    19     8    24    1
    20     9    17    1
    21     9    25    1
    22    10    14    1
    23    10    26    1
    24    10    27    1
    25    11    15   ar
    26    11    18   ar
    27    12    16    1
    28    12    28    1
    29    13    15    1
    30    13    29    1
    31    13    30    1
    32    14    31    1
    33    14    32    1
    34    15    20   ar
    35    16    17    1
    36    16    33    1
    37    16    34    1
    38    18    21   ar
    39    19    35    1
    40    19    36    1
    41    19    37    1
    42    20    22   ar
    43    20    38    1
    44    21    22   ar
    45    22    40    1
@<TRIPOS>MOLECULE
131698385
 41 45 0 0 0
SMALL
GASTEIGER

@<TRIPOS>ATOM
      1 O           2.0666    0.5603    1.3005 O.3     1  UNL1       -0.4765
      2 O          -3.7910   -1.5073   -0.0326 O.co2   1  UNL1       -0.7753
      3 O           2.6742    2.6678   -0.2965 O.2     1  UNL1       -0.2934
      4 O           3.8994   -1.6308    0.6967 O.3     1  UNL1       -0.5033
      5 N          -3.0259   -0.4135    0.3233 N.3     1  UNL1        0.2176
      6 C          -0.2498    0.6448    0.6047 C.3     1  UNL1        0.0561
      7 C          -1.2104    1.1938   -0.4541 C.3     1  UNL1        0.0164
      8 C          -2.1371    0.0169   -0.8719 C.3     1  UNL1       -0.0140
      9 C          -1.0612    0.2180    1.8491 C.3     1  UNL1        0.0014
     10 C           0.9857    1.4863    0.9665 C.3     1  UNL1        0.1680
     11 C           0.4867   -0.5261    0.0585 C.ar    1  UNL1        0.0121
     12 C          -0.4820    1.8667   -1.6249 C.3     1  UNL1       -0.0373
     13 C          -2.1711   -0.7874    1.5224 C.3     1  UNL1       -0.0317
     14 C          -1.3438   -1.1927   -1.4835 C.3     1  UNL1        0.0161
     15 C           0.0048   -1.4379   -0.8596 C.ar    1  UNL1       -0.0345
     16 C           0.4436    2.9607   -1.1049 C.3     1  UNL1        0.0101
     17 C           1.4835    2.3772   -0.1749 C.2     1  UNL1        0.1744
     18 C           1.7776   -0.5522    0.5456 C.ar    1  UNL1        0.1668
     19 C          -3.9998    0.6724    0.7030 C.3     1  UNL1       -0.0436
     20 C           0.8597   -2.4806   -1.2176 C.ar    1  UNL1       -0.0544
     21 C           2.6331   -1.5787    0.2171 C.ar    1  UNL1        0.1588
     22 C           2.1574   -2.5579   -0.6668 C.ar    1  UNL1       -0.0162
     23 H          -1.8089    1.9891    0.0051 H       1  UNL1        0.0366
     24 H          -2.8641    0.3530   -1.6228 H       1  UNL1        0.0856
     25 H          -1.5049    1.1110    2.3069 H       1  UNL1        0.0327
     26 H          -0.4105   -0.2232    2.6152 H       1  UNL1        0.0327
     27 H           0.7987    2.1352    1.8298 H       1  UNL1        0.0823
     28 H          -1.2174    2.3069   -2.3085 H       1  UNL1        0.0274
     29 H           0.0990    1.1442   -2.2086 H       1  UNL1        0.0274
     30 H          -1.7556   -1.7767    1.3000 H       1  UNL1        0.0814
     31 H          -2.8561   -0.9082    2.3698 H       1  UNL1        0.0814
     32 H          -1.1711   -0.9712   -2.5448 H       1  UNL1        0.0368
     33 H          -1.9297   -2.1164   -1.4418 H       1  UNL1        0.0368
     34 H          -0.1129    3.7319   -0.5620 H       1  UNL1        0.0343
     35 H           0.9537    3.4406   -1.9471 H       1  UNL1        0.0343
     36 H          -4.5378    0.9675   -0.2017 H       1  UNL1        0.0777
     37 H          -4.6962    0.2451    1.4313 H       1  UNL1        0.0777
     38 H          -3.4694    1.5145    1.1457 H       1  UNL1        0.0777
     39 H           0.5409   -3.2300   -1.9371 H       1  UNL1        0.0622
     40 H           2.8016   -3.3817   -0.9666 H       1  UNL1        0.0655
     41 H           4.3375   -2.4229    0.3407 H       1  UNL1        0.2923
@<TRIPOS>UNITY_ATOM_ATTR
2 1
charge -1
5 1
charge 1
@<TRIPOS>BOND
     1     1    10    1
     2     1    18    1
     3     2     5    1
     4     3    17    2
     5     4    21    1
     6     4    41    1
     7     5     8    1
     8     5    13    1
     9     5    19    1
    10     6     7    1
    11     6     9    1
    12     6    10    1
    13     6    11    1
    14     7     8    1
    15     7    12    1
    16     7    23    1
    17     8    14    1
    18     8    24    1
    19     9    13    1
    20     9    25    1
    21     9    26    1
    22    10    17    1
    23    10    27    1
    24    11    15   ar
    25    11    18   ar
    26    12    16    1
    27    12    28    1
    28    12    29    1
    29    13    30    1
    30    13    31    1
    31    14    15    1
    32    14    32    1
    33    14    33    1
    34    15    20   ar
    35    16    17    1
    36    16    34    1
    37    16    35    1
    38    18    21   ar
    39    19    36    1
    40    19    37    1
    41    19    38    1
    42    20    22   ar
    43    20    39    1
    44    21    22   ar
    45    22    40    1
@<TRIPOS>MOLECULE
67574
 17 17 0 0 0
SMALL
GASTEIGER

@<TRIPOS>ATOM
      1 CL          1.2992   -2.4215    0.0027 Cl      1  UNL1       -0.0830
      2 F           1.7074    1.9958   -0.0006 F       1  UNL1       -0.1658
      3 F           2.3826    0.2374    1.0853 F       1  UNL1       -0.1658
      4 F           2.3580    0.2256   -1.0948 F       1  UNL1       -0.1658
      5 N          -3.1692    1.4703    0.0003 N.pl3   1  UNL1       -0.3579
      6 C           0.2749    0.1038    0.0011 C.ar    1  UNL1        0.0748
      7 C          -0.7829    1.0131    0.0008 C.ar    1  UNL1       -0.0280
      8 C          -2.0993    0.5516    0.0008 C.ar    1  UNL1        0.0252
      9 C           0.0164   -1.2668    0.0015 C.ar    1  UNL1        0.0527
     10 C           1.6706    0.6381    0.0004 C.3     1  UNL1        0.4188
     11 C          -2.3578   -0.8190    0.0010 C.ar    1  UNL1       -0.0396
     12 C          -1.2999   -1.7283    0.0015 C.ar    1  UNL1       -0.0411
     13 H          -0.5952    2.0841    0.0005 H       1  UNL1        0.0642
     14 H          -3.3791   -1.1911    0.0010 H       1  UNL1        0.0636
     15 H          -1.5183   -2.7932    0.0019 H       1  UNL1        0.0633
     16 H          -4.1236    1.1358    0.0009 H       1  UNL1        0.1423
     17 H          -2.9833    2.4643    0.0008 H       1  UNL1        0.1423
@<TRIPOS>BOND
     1     1     9    1
     2     2    10    1
     3     3    10    1
     4     4    10    1
     5     5     8    1
     6     5    16    1
     7     5    17    1
     8     6     7   ar
     9     6     9   ar
    10     6    10    1
    11     7     8   ar
    12     7    13    1
    13     8    11   ar
    14     9    12   ar
    15    11    12   ar
    16    11    14    1
    17    12    15    1
