@<TRIPOS>MOLECULE
5284569
 43 47 0 0 0
SMALL
GASTEIGER

@<TRIPOS>ATOM
      1 O          -1.5604   -1.0395    1.2439 O.3     1  UNL1       -0.4765
      2 O          -1.6024   -3.2458   -0.3367 O.2     1  UNL1       -0.2934
      3 O          -3.7900    0.6985    0.5141 O.3     1  UNL1       -0.4914
      4 N           3.2122    0.9116    0.4873 N.3     1  UNL1       -0.3018
      5 C           0.7515   -0.6227    0.6656 C.3     1  UNL1        0.0488
      6 C           1.8678   -0.9528   -0.3316 C.3     1  UNL1       -0.0111
      7 C           2.5371    0.3989   -0.7298 C.3     1  UNL1        0.0179
      8 C          -0.2870   -1.7090    0.9857 C.3     1  UNL1        0.1677
      9 C           1.3921   -0.0145    1.9318 C.3     1  UNL1       -0.0263
     10 C          -0.1913    0.3568    0.0618 C.ar    1  UNL1        0.0116
     11 C           1.3694   -1.7866   -1.5186 C.3     1  UNL1       -0.0410
     12 C           1.5290    1.3996   -1.3973 C.3     1  UNL1       -0.0113
     13 C           2.3083    1.1802    1.6107 C.3     1  UNL1       -0.0002
     14 C           0.1294    1.3493   -0.8438 C.ar    1  UNL1       -0.0383
     15 C           0.6811   -3.0513   -1.0178 C.3     1  UNL1        0.0099
     16 C          -0.5128   -2.7002   -0.1588 C.2     1  UNL1        0.1744
     17 C          -1.4805    0.1041    0.4843 C.ar    1  UNL1        0.1670
     18 C           4.0952    2.0442    0.2298 C.3     1  UNL1       -0.0125
     19 C          -0.9113    2.1801   -1.2593 C.ar    1  UNL1       -0.0546
     20 C          -2.5193    0.9195    0.0982 C.ar    1  UNL1        0.1618
     21 C          -2.2217    1.9755   -0.7753 C.ar    1  UNL1       -0.0160
     22 C          -4.7965    1.6041    0.0557 C.3     1  UNL1        0.0790
     23 H           2.6209   -1.5750    0.1769 H       1  UNL1        0.0326
     24 H           3.3220    0.1782   -1.4657 H       1  UNL1        0.0469
     25 H          -0.0093   -2.2908    1.8721 H       1  UNL1        0.0823
     26 H           1.9859   -0.7895    2.4352 H       1  UNL1        0.0287
     27 H           0.6299    0.3090    2.6525 H       1  UNL1        0.0287
     28 H           2.2188   -2.0625   -2.1545 H       1  UNL1        0.0273
     29 H           0.6757   -1.2175   -2.1475 H       1  UNL1        0.0273
     30 H           1.4631    1.1365   -2.4616 H       1  UNL1        0.0329
     31 H           1.9025    2.4277   -1.3588 H       1  UNL1        0.0329
     32 H           1.6996    2.0722    1.4175 H       1  UNL1        0.0427
     33 H           2.8969    1.4000    2.5103 H       1  UNL1        0.0427
     34 H           1.3631   -3.6712   -0.4263 H       1  UNL1        0.0343
     35 H           0.3380   -3.6451   -1.8719 H       1  UNL1        0.0343
     36 H           4.7162    2.2462    1.1099 H       1  UNL1        0.0391
     37 H           3.5507    2.9625   -0.0115 H       1  UNL1        0.0391
     38 H           4.7850    1.8230   -0.5919 H       1  UNL1        0.0391
     39 H          -0.7245    2.9786   -1.9725 H       1  UNL1        0.0622
     40 H          -2.9735    2.6659   -1.1459 H       1  UNL1        0.0655
     41 H          -5.7454    1.2856    0.4991 H       1  UNL1        0.0660
     42 H          -4.9144    1.5524   -1.0319 H       1  UNL1        0.0660
     43 H          -4.6042    2.6250    0.4022 H       1  UNL1        0.0660
@<TRIPOS>BOND
     1     1     8    1
     2     1    17    1
     3     2    16    2
     4     3    20    1
     5     3    22    1
     6     4     7    1
     7     4    13    1
     8     4    18    1
     9     5     6    1
    10     5     8    1
    11     5     9    1
    12     5    10    1
    13     6     7    1
    14     6    11    1
    15     6    23    1
    16     7    12    1
    17     7    24    1
    18     8    16    1
    19     8    25    1
    20     9    13    1
    21     9    26    1
    22     9    27    1
    23    10    14   ar
    24    10    17   ar
    25    11    15    1
    26    11    28    1
    27    11    29    1
    28    12    14    1
    29    12    30    1
    30    12    31    1
    31    13    32    1
    32    13    33    1
    33    14    19   ar
    34    15    16    1
    35    15    34    1
    36    15    35    1
    37    17    20   ar
    38    18    36    1
    39    18    37    1
    40    18    38    1
    41    19    21   ar
    42    19    39    1
    43    20    21   ar
    44    21    40    1
    45    22    41    1
    46    22    42    1
    47    22    43    1
@<TRIPOS>MOLECULE
16217589
 43 47 0 0 0
SMALL
GASTEIGER

@<TRIPOS>ATOM
      1 O          -1.5604   -1.0395    1.2439 O.3     1  UNL1       -0.4765
      2 O          -1.6024   -3.2458   -0.3367 O.2     1  UNL1       -0.2934
      3 O          -3.7900    0.6985    0.5141 O.3     1  UNL1       -0.4914
      4 N           3.2122    0.9116    0.4873 N.3     1  UNL1       -0.3018
      5 C           0.7515   -0.6227    0.6656 C.3     1  UNL1        0.0488
      6 C           1.8678   -0.9528   -0.3316 C.3     1  UNL1       -0.0111
      7 C           2.5371    0.3989   -0.7298 C.3     1  UNL1        0.0179
      8 C          -0.2870   -1.7090    0.9857 C.3     1  UNL1        0.1677
      9 C           1.3921   -0.0145    1.9318 C.3     1  UNL1       -0.0263
     10 C          -0.1913    0.3568    0.0618 C.ar    1  UNL1        0.0116
     11 C           1.3694   -1.7866   -1.5186 C.3     1  UNL1       -0.0410
     12 C           1.5290    1.3996   -1.3973 C.3     1  UNL1       -0.0113
     13 C           2.3083    1.1802    1.6107 C.3     1  UNL1       -0.0002
     14 C           0.1294    1.3493   -0.8438 C.ar    1  UNL1       -0.0383
     15 C           0.6811   -3.0513   -1.0178 C.3     1  UNL1        0.0099
     16 C          -0.5128   -2.7002   -0.1588 C.2     1  UNL1        0.1744
     17 C          -1.4805    0.1041    0.4843 C.ar    1  UNL1        0.1670
     18 C           4.0952    2.0442    0.2298 C.3     1  UNL1       -0.0125
     19 C          -0.9113    2.1801   -1.2593 C.ar    1  UNL1       -0.0546
     20 C          -2.5193    0.9195    0.0982 C.ar    1  UNL1        0.1618
     21 C          -2.2217    1.9755   -0.7753 C.ar    1  UNL1       -0.0160
     22 C          -4.7965    1.6041    0.0557 C.3     1  UNL1        0.0790
     23 H           2.6209   -1.5750    0.1769 H       1  UNL1        0.0326
     24 H           3.3220    0.1782   -1.4657 H       1  UNL1        0.0469
     25 H          -0.0093   -2.2908    1.8721 H       1  UNL1        0.0823
     26 H           1.9858   -0.7896    2.4351 H       1  UNL1        0.0287
     27 H           0.6300    0.3090    2.6524 H       1  UNL1        0.0287
     28 H           2.2188   -2.0625   -2.1545 H       1  UNL1        0.0273
     29 H           0.6757   -1.2175   -2.1475 H       1  UNL1        0.0273
     30 H           1.4631    1.1365   -2.4616 H       1  UNL1        0.0329
     31 H           1.9025    2.4277   -1.3588 H       1  UNL1        0.0329
     32 H           1.6995    2.0722    1.4176 H       1  UNL1        0.0427
     33 H           2.8969    1.4000    2.5103 H       1  UNL1        0.0427
     34 H           1.3632   -3.6712   -0.4264 H       1  UNL1        0.0343
     35 H           0.3380   -3.6451   -1.8719 H       1  UNL1        0.0343
     36 H           4.7850    1.8230   -0.5919 H       1  UNL1        0.0391
     37 H           4.7162    2.2462    1.1099 H       1  UNL1        0.0391
     38 H           3.5507    2.9625   -0.0115 H       1  UNL1        0.0391
     39 H          -0.7245    2.9786   -1.9725 H       1  UNL1        0.0622
     40 H          -2.9735    2.6659   -1.1459 H       1  UNL1        0.0655
     41 H          -5.7454    1.2856    0.4991 H       1  UNL1        0.0660
     42 H          -4.9144    1.5524   -1.0319 H       1  UNL1        0.0660
     43 H          -4.6042    2.6250    0.4022 H       1  UNL1        0.0660
@<TRIPOS>BOND
     1     1     8    1
     2     1    17    1
     3     2    16    2
     4     3    20    1
     5     3    22    1
     6     4     7    1
     7     4    13    1
     8     4    18    1
     9     5     6    1
    10     5     8    1
    11     5     9    1
    12     5    10    1
    13     6     7    1
    14     6    11    1
    15     6    23    1
    16     7    12    1
    17     7    24    1
    18     8    16    1
    19     8    25    1
    20     9    13    1
    21     9    26    1
    22     9    27    1
    23    10    14   ar
    24    10    17   ar
    25    11    15    1
    26    11    28    1
    27    11    29    1
    28    12    14    1
    29    12    30    1
    30    12    31    1
    31    13    32    1
    32    13    33    1
    33    14    19   ar
    34    15    16    1
    35    15    34    1
    36    15    35    1
    37    17    20   ar
    38    18    36    1
    39    18    37    1
    40    18    38    1
    41    19    21   ar
    42    19    39    1
    43    20    21   ar
    44    21    40    1
    45    22    41    1
    46    22    42    1
    47    22    43    1
@<TRIPOS>MOLECULE
129318760
 44 48 0 0 0
SMALL
GASTEIGER

@<TRIPOS>ATOM
      1 O           1.7078   -1.0204   -1.2713 O.3     1  UNL1       -0.4765
      2 O          -4.0741   -0.0005   -0.7445 O.co2   1  UNL1       -0.7753
      3 O           1.8485   -3.2267    0.3037 O.2     1  UNL1       -0.2934
      4 O           3.9346    0.7515   -0.6179 O.3     1  UNL1       -0.4914
      5 N          -3.1024    0.9063   -0.3558 N.3     1  UNL1        0.2176
      6 C          -0.5880   -0.6431   -0.6057 C.3     1  UNL1        0.0561
      7 C          -1.6576   -0.9980    0.4320 C.3     1  UNL1        0.0164
      8 C          -2.3293    0.3423    0.8616 C.3     1  UNL1       -0.0140
      9 C          -1.2786   -0.0488   -1.8547 C.3     1  UNL1        0.0014
     10 C           0.4569   -1.7123   -0.9658 C.3     1  UNL1        0.1680
     11 C           0.3607    0.3486   -0.0333 C.ar    1  UNL1        0.0121
     12 C          -1.1050   -1.8287    1.5967 C.3     1  UNL1       -0.0373
     13 C          -2.1699    1.1542   -1.5259 C.3     1  UNL1       -0.0317
     14 C          -1.3156    1.3457    1.5067 C.3     1  UNL1        0.0161
     15 C           0.0598    1.3276    0.8932 C.ar    1  UNL1       -0.0345
     16 C          -0.4127   -3.0787    1.0662 C.3     1  UNL1        0.0101
     17 C           0.7428   -2.7017    0.1667 C.2     1  UNL1        0.1744
     18 C           1.6373    0.1196   -0.5053 C.ar    1  UNL1        0.1670
     19 C          -3.8329    2.1758   -0.0154 C.3     1  UNL1       -0.0436
     20 C           1.1022    2.1727    1.2748 C.ar    1  UNL1       -0.0544
     21 C           2.6769    0.9493   -0.1533 C.ar    1  UNL1        0.1618
     22 C           2.3960    1.9943    0.7387 C.ar    1  UNL1       -0.0160
     23 C           4.9426    1.6711   -0.1913 C.3     1  UNL1        0.0790
     24 H          -2.4071   -1.6364   -0.0563 H       1  UNL1        0.0366
     25 H          -3.1247    0.1350    1.5900 H       1  UNL1        0.0856
     26 H          -1.8930   -0.8291   -2.3227 H       1  UNL1        0.0327
     27 H          -0.5437    0.2582   -2.6099 H       1  UNL1        0.0327
     28 H           0.1560   -2.2978   -1.8422 H       1  UNL1        0.0823
     29 H          -1.9275   -2.1214    2.2599 H       1  UNL1        0.0274
     30 H          -0.3992   -1.2516    2.2042 H       1  UNL1        0.0274
     31 H          -2.8084    1.4049   -2.3812 H       1  UNL1        0.0814
     32 H          -1.5730    2.0372   -1.2758 H       1  UNL1        0.0814
     33 H          -1.1958    1.0567    2.5593 H       1  UNL1        0.0368
     34 H          -1.6958    2.3694    1.5088 H       1  UNL1        0.0368
     35 H          -1.1041   -3.7088    0.4967 H       1  UNL1        0.0343
     36 H          -0.0284   -3.6694    1.9047 H       1  UNL1        0.0343
     37 H          -4.4117    1.9934    0.8935 H       1  UNL1        0.0777
     38 H          -3.1137    2.9849    0.1171 H       1  UNL1        0.0777
     39 H          -4.4991    2.4039   -0.8532 H       1  UNL1        0.0777
     40 H           0.9304    2.9616    2.0023 H       1  UNL1        0.0622
     41 H           3.1500    2.6943    1.0859 H       1  UNL1        0.0655
     42 H           5.1024    1.6143    0.8906 H       1  UNL1        0.0660
     43 H           4.7205    2.6909   -0.5232 H       1  UNL1        0.0660
     44 H           5.8791    1.3713   -0.6724 H       1  UNL1        0.0660
@<TRIPOS>UNITY_ATOM_ATTR
2 1
charge -1
5 1
charge 1
@<TRIPOS>BOND
     1     1    10    1
     2     1    18    1
     3     2     5    1
     4     3    17    2
     5     4    21    1
     6     4    23    1
     7     5     8    1
     8     5    13    1
     9     5    19    1
    10     6     7    1
    11     6     9    1
    12     6    10    1
    13     6    11    1
    14     7     8    1
    15     7    12    1
    16     7    24    1
    17     8    14    1
    18     8    25    1
    19     9    13    1
    20     9    26    1
    21     9    27    1
    22    10    17    1
    23    10    28    1
    24    11    15   ar
    25    11    18   ar
    26    12    16    1
    27    12    29    1
    28    12    30    1
    29    13    31    1
    30    13    32    1
    31    14    15    1
    32    14    33    1
    33    14    34    1
    34    15    20   ar
    35    16    17    1
    36    16    35    1
    37    16    36    1
    38    18    21   ar
    39    19    37    1
    40    19    38    1
    41    19    39    1
    42    20    22   ar
    43    20    40    1
    44    21    22   ar
    45    22    41    1
    46    23    42    1
    47    23    43    1
    48    23    44    1
@<TRIPOS>MOLECULE
71748782
 43 47 0 0 0
SMALL
GASTEIGER

@<TRIPOS>ATOM
      1 O           1.5194   -1.3795   -0.9697 O.3     1  UNL1       -0.4765
      2 O           0.8748   -3.3383    0.8825 O.2     1  UNL1       -0.2934
      3 O           4.0305    0.0047   -0.5143 O.3     1  UNL1       -0.4914
      4 N          -3.3469    1.0359   -0.1193 N.3     1  UNL1       -0.3018
      5 C          -0.6861   -0.4548   -0.5626 C.3     1  UNL1        0.0488
      6 C          -1.5137   -0.3412    0.6931 C.3     1  UNL1       -0.0111
      7 C          -2.0376    1.1192    0.4857 C.3     1  UNL1        0.0179
      8 C           0.1261   -1.7355   -0.7562 C.3     1  UNL1        0.1677
      9 C          -1.6225   -0.1241   -1.8050 C.3     1  UNL1       -0.0263
     10 C           0.4412    0.4965   -0.2110 C.ar    1  UNL1        0.0116
     11 C          -2.3797   -1.5888    0.8398 C.3     1  UNL1       -0.0410
     12 C          -1.0432    2.0715    1.1910 C.3     1  UNL1       -0.0113
     13 C          -3.1167    0.4067   -1.4769 C.3     1  UNL1       -0.0002
     14 C           0.3449    1.6702    0.5924 C.ar    1  UNL1       -0.0383
     15 C          -1.4714   -2.8223    1.0154 C.3     1  UNL1        0.0099
     16 C          -0.0604   -2.6712    0.4383 C.2     1  UNL1        0.1744
     17 C           1.6466   -0.0927   -0.5081 C.ar    1  UNL1        0.1670
     18 C          -4.0205    2.3239   -0.2127 C.3     1  UNL1       -0.0125
     19 C           1.5307    2.3285    0.9016 C.ar    1  UNL1       -0.0546
     20 C           2.8275    0.5554   -0.2111 C.ar    1  UNL1        0.1618
     21 C           2.7601    1.7830    0.4742 C.ar    1  UNL1       -0.0160
     22 C           5.1970    0.7528   -0.1671 C.3     1  UNL1        0.0790
     23 H          -0.9117   -0.3523    1.6182 H       1  UNL1        0.0326
     24 H          -1.6567    1.5856   -0.4394 H       1  UNL1        0.0469
     25 H          -0.1950   -2.3038   -1.6365 H       1  UNL1        0.0823
     26 H          -1.7518   -1.0167   -2.4289 H       1  UNL1        0.0287
     27 H          -1.1239    0.6254   -2.4341 H       1  UNL1        0.0287
     28 H          -3.0195   -1.7673   -0.0278 H       1  UNL1        0.0273
     29 H          -3.0483   -1.4948    1.7031 H       1  UNL1        0.0273
     30 H          -1.0520    1.9280    2.2760 H       1  UNL1        0.0329
     31 H          -1.2518    3.1233    0.9628 H       1  UNL1        0.0329
     32 H          -3.8142   -0.4336   -1.5707 H       1  UNL1        0.0427
     33 H          -3.3863    1.1063   -2.2794 H       1  UNL1        0.0427
     34 H          -1.9404   -3.7015    0.5615 H       1  UNL1        0.0343
     35 H          -1.3558   -3.0184    2.0882 H       1  UNL1        0.0343
     36 H          -4.1733    2.7460    0.7865 H       1  UNL1        0.0391
     37 H          -5.0117    2.2017   -0.6625 H       1  UNL1        0.0391
     38 H          -3.4586    3.0509   -0.8102 H       1  UNL1        0.0391
     39 H           1.5217    3.2361    1.4978 H       1  UNL1        0.0622
     40 H           3.6427    2.3498    0.7562 H       1  UNL1        0.0655
     41 H           5.2915    0.8655    0.9182 H       1  UNL1        0.0660
     42 H           5.2270    1.7156   -0.6884 H       1  UNL1        0.0660
     43 H           6.0636    0.1764   -0.5067 H       1  UNL1        0.0660
@<TRIPOS>BOND
     1     1     8    1
     2     1    17    1
     3     2    16    2
     4     3    20    1
     5     3    22    1
     6     4     7    1
     7     4    13    1
     8     4    18    1
     9     5     6    1
    10     5     8    1
    11     5     9    1
    12     5    10    1
    13     6     7    1
    14     6    11    1
    15     6    23    1
    16     7    12    1
    17     7    24    1
    18     8    16    1
    19     8    25    1
    20     9    13    1
    21     9    26    1
    22     9    27    1
    23    10    14   ar
    24    10    17   ar
    25    11    15    1
    26    11    28    1
    27    11    29    1
    28    12    14    1
    29    12    30    1
    30    12    31    1
    31    13    32    1
    32    13    33    1
    33    14    19   ar
    34    15    16    1
    35    15    34    1
    36    15    35    1
    37    17    20   ar
    38    18    36    1
    39    18    37    1
    40    18    38    1
    41    19    21   ar
    42    19    39    1
    43    20    21   ar
    44    21    40    1
    45    22    41    1
    46    22    42    1
    47    22    43    1
@<TRIPOS>MOLECULE
91753850
 48 52 0 0 0
SMALL
GASTEIGER

@<TRIPOS>ATOM
      1 F           5.4315    1.1960   -1.0383 F       1  UNL1       -0.1606
      2 F           5.0445   -0.5985    0.1363 F       1  UNL1       -0.1606
      3 F           4.8915    1.3674    1.0661 F       1  UNL1       -0.1606
      4 O           0.8071   -0.7951    0.7954 O.3     1  UNL1       -0.4763
      5 O           2.5140    1.4874    0.4825 O.3     1  UNL1       -0.4205
      6 O           0.8159   -3.6633    0.3966 O.3     1  UNL1       -0.4914
      7 O           2.7163    0.1740   -1.4287 O.2     1  UNL1       -0.2402
      8 N          -3.7132    1.9712    0.1122 N.3     1  UNL1       -0.3018
      9 C          -1.1767    0.6305    0.5602 C.3     1  UNL1        0.0492
     10 C          -1.4928    1.3383   -0.7652 C.3     1  UNL1       -0.0079
     11 C          -3.0334    1.2375   -0.9727 C.3     1  UNL1        0.0181
     12 C           0.3125    0.5691    0.9655 C.3     1  UNL1        0.1671
     13 C          -2.0220    1.1794    1.7306 C.3     1  UNL1       -0.0262
     14 C          -1.4199   -0.7941    0.2442 C.ar    1  UNL1        0.0116
     15 C          -3.4681   -0.2825   -1.0939 C.3     1  UNL1       -0.0113
     16 C          -0.8430    2.7217   -0.7928 C.3     1  UNL1       -0.0260
     17 C          -3.5108    1.3431    1.4183 C.3     1  UNL1       -0.0002
     18 C          -2.5068   -1.2758   -0.4704 C.ar    1  UNL1       -0.0383
     19 C          -0.2892   -1.5489    0.4580 C.ar    1  UNL1        0.1671
     20 C           1.1582    1.5934    0.2475 C.2     1  UNL1        0.1464
     21 C           0.6336    2.5855   -0.4995 C.2     1  UNL1       -0.0417
     22 C          -5.1298    2.2010   -0.1544 C.3     1  UNL1       -0.0125
     23 C          -2.5360   -2.6446   -0.7404 C.ar    1  UNL1       -0.0546
     24 C          -0.2831   -2.8993    0.1784 C.ar    1  UNL1        0.1618
     25 C          -1.4384   -3.4551   -0.3886 C.ar    1  UNL1       -0.0160
     26 C           3.1850    0.7371   -0.4480 C.2     1  UNL1        0.4181
     27 C           0.7211   -5.0525    0.0742 C.3     1  UNL1        0.0790
     28 C           4.6319    0.6770   -0.0730 C.3     1  UNL1        0.4915
     29 H          -1.0334    0.7930   -1.6089 H       1  UNL1        0.0329
     30 H          -3.2750    1.7350   -1.9215 H       1  UNL1        0.0469
     31 H           0.4225    0.7689    2.0409 H       1  UNL1        0.0825
     32 H          -1.6265    2.1623    2.0213 H       1  UNL1        0.0287
     33 H          -1.9214    0.5337    2.6130 H       1  UNL1        0.0287
     34 H          -3.5070   -0.5081   -2.1686 H       1  UNL1        0.0329
     35 H          -4.4767   -0.4589   -0.7076 H       1  UNL1        0.0329
     36 H          -1.2949    3.4171   -0.0779 H       1  UNL1        0.0312
     37 H          -0.9698    3.1555   -1.7915 H       1  UNL1        0.0312
     38 H          -4.0151    0.3713    1.4832 H       1  UNL1        0.0427
     39 H          -3.9525    1.9695    2.2036 H       1  UNL1        0.0427
     40 H           1.2934    3.3306   -0.9360 H       1  UNL1        0.0606
     41 H          -5.2663    2.7036   -1.1183 H       1  UNL1        0.0391
     42 H          -5.5543    2.8679    0.6046 H       1  UNL1        0.0391
     43 H          -5.7208    1.2798   -0.1591 H       1  UNL1        0.0391
     44 H          -3.3717   -3.0816   -1.2802 H       1  UNL1        0.0622
     45 H          -1.5265   -4.5060   -0.6463 H       1  UNL1        0.0655
     46 H           1.6816   -5.5107    0.3313 H       1  UNL1        0.0660
     47 H           0.5688   -5.2039   -0.9996 H       1  UNL1        0.0660
     48 H          -0.0459   -5.5521    0.6755 H       1  UNL1        0.0660
@<TRIPOS>BOND
     1     1    28    1
     2     2    28    1
     3     3    28    1
     4     4    12    1
     5     4    19    1
     6     5    20    1
     7     5    26    1
     8     6    24    1
     9     6    27    1
    10     7    26    2
    11     8    11    1
    12     8    17    1
    13     8    22    1
    14     9    10    1
    15     9    12    1
    16     9    13    1
    17     9    14    1
    18    10    11    1
    19    10    16    1
    20    10    29    1
    21    11    15    1
    22    11    30    1
    23    12    20    1
    24    12    31    1
    25    13    17    1
    26    13    32    1
    27    13    33    1
    28    14    18   ar
    29    14    19   ar
    30    15    18    1
    31    15    34    1
    32    15    35    1
    33    16    21    1
    34    16    36    1
    35    16    37    1
    36    17    38    1
    37    17    39    1
    38    18    23   ar
    39    19    24   ar
    40    20    21    2
    41    21    40    1
    42    22    41    1
    43    22    42    1
    44    22    43    1
    45    23    25   ar
    46    23    44    1
    47    24    25   ar
    48    25    45    1
    49    26    28    1
    50    27    46    1
    51    27    47    1
    52    27    48    1
@<TRIPOS>MOLECULE
151288939
 44 48 0 0 0
SMALL
GASTEIGER

@<TRIPOS>ATOM
      1 O           1.6365    1.2390    1.1667 O.3     1  UNL1       -0.4765
      2 O          -1.8793   -2.8171   -1.1350 O.3     1  UNL1       -0.3856
      3 O           1.6350    3.2828   -0.6219 O.2     1  UNL1       -0.2934
      4 O           3.9008   -0.5146    0.6062 O.3     1  UNL1       -0.4914
      5 N          -3.0557   -0.9995    0.6026 N.3     1  UNL1       -0.2993
      6 C          -0.6653    0.7242    0.6353 C.3     1  UNL1        0.0490
      7 C          -1.7918    0.9395   -0.3794 C.3     1  UNL1       -0.0087
      8 C          -2.4337   -0.4583   -0.6363 C.3     1  UNL1        0.0440
      9 C           0.3511    1.8564    0.8474 C.3     1  UNL1        0.1677
     10 C          -1.2915    0.2282    1.9569 C.3     1  UNL1       -0.0263
     11 C           0.2964   -0.2904    0.1221 C.ar    1  UNL1        0.0141
     12 C          -1.3135    1.6637   -1.6448 C.3     1  UNL1       -0.0409
     13 C          -1.4013   -1.4801   -1.2472 C.3     1  UNL1        0.0963
     14 C          -2.1459   -1.0358    1.7572 C.3     1  UNL1       -0.0001
     15 C          -0.0037   -1.3709   -0.6884 C.ar    1  UNL1       -0.0101
     16 C          -0.6463    2.9829   -1.2717 C.3     1  UNL1        0.0099
     17 C           0.5560    2.7371   -0.3879 C.2     1  UNL1        0.1744
     18 C           1.5798    0.0268    0.5195 C.ar    1  UNL1        0.1671
     19 C          -4.3104   -0.3256    0.9368 C.3     1  UNL1       -0.0124
     20 C           1.0579   -2.2124   -1.0256 C.ar    1  UNL1       -0.0521
     21 C           2.6359   -0.7997    0.2123 C.ar    1  UNL1        0.1618
     22 C           2.3624   -1.9375   -0.5601 C.ar    1  UNL1       -0.0159
     23 C           4.9265   -1.4387    0.2352 C.3     1  UNL1        0.0790
     24 H          -2.5441    1.6035    0.0680 H       1  UNL1        0.0327
     25 H          -3.2330   -0.3591   -1.3836 H       1  UNL1        0.0494
     26 H           0.0619    2.5152    1.6743 H       1  UNL1        0.0823
     27 H          -1.9193    1.0245    2.3776 H       1  UNL1        0.0287
     28 H          -0.5197    0.0137    2.7075 H       1  UNL1        0.0287
     29 H          -2.1706    1.8611   -2.2993 H       1  UNL1        0.0273
     30 H          -0.6107    1.0513   -2.2203 H       1  UNL1        0.0273
     31 H          -1.3243   -1.2648   -2.3211 H       1  UNL1        0.0659
     32 H          -1.4822   -1.9015    1.6429 H       1  UNL1        0.0427
     33 H          -2.7014   -1.2458    2.6805 H       1  UNL1        0.0427
     34 H          -1.3376    3.6452   -0.7399 H       1  UNL1        0.0343
     35 H          -0.3161    3.4971   -2.1807 H       1  UNL1        0.0343
     36 H          -4.9978   -0.3376    0.0838 H       1  UNL1        0.0391
     37 H          -4.8209   -0.8582    1.7473 H       1  UNL1        0.0391
     38 H          -4.1715    0.7125    1.2538 H       1  UNL1        0.0391
     39 H           0.8941   -3.0740   -1.6675 H       1  UNL1        0.0622
     40 H          -2.7808   -2.8356   -1.4988 H       1  UNL1        0.2103
     41 H           3.1294   -2.6427   -0.8661 H       1  UNL1        0.0655
     42 H           5.8674   -1.0614    0.6485 H       1  UNL1        0.0660
     43 H           4.7533   -2.4267    0.6749 H       1  UNL1        0.0660
     44 H           5.0469   -1.4857   -0.8522 H       1  UNL1        0.0660
@<TRIPOS>BOND
     1     1     9    1
     2     1    18    1
     3     2    13    1
     4     2    40    1
     5     3    17    2
     6     4    21    1
     7     4    23    1
     8     5     8    1
     9     5    14    1
    10     5    19    1
    11     6     7    1
    12     6     9    1
    13     6    10    1
    14     6    11    1
    15     7     8    1
    16     7    12    1
    17     7    24    1
    18     8    13    1
    19     8    25    1
    20     9    17    1
    21     9    26    1
    22    10    14    1
    23    10    27    1
    24    10    28    1
    25    11    15   ar
    26    11    18   ar
    27    12    16    1
    28    12    29    1
    29    12    30    1
    30    13    15    1
    31    13    31    1
    32    14    32    1
    33    14    33    1
    34    15    20   ar
    35    16    17    1
    36    16    34    1
    37    16    35    1
    38    18    21   ar
    39    19    36    1
    40    19    37    1
    41    19    38    1
    42    20    22   ar
    43    20    39    1
    44    21    22   ar
    45    22    41    1
    46    23    42    1
    47    23    43    1
    48    23    44    1
@<TRIPOS>MOLECULE
117065091
 43 47 0 0 0
SMALL
GASTEIGER

@<TRIPOS>ATOM
      1 O           1.5602    1.0397    1.2440 O.3     1  UNL1       -0.4765
      2 O           1.6022    3.2460   -0.3367 O.2     1  UNL1       -0.2934
      3 O           3.7902   -0.6983    0.5141 O.3     1  UNL1       -0.4914
      4 N          -3.2122   -0.9117    0.4872 N.3     1  UNL1       -0.3018
      5 C          -0.7516    0.6228    0.6656 C.3     1  UNL1        0.0488
      6 C          -1.8679    0.9526   -0.3318 C.3     1  UNL1       -0.0111
      7 C          -2.5371   -0.3991   -0.7299 C.3     1  UNL1        0.0179
      8 C           0.2868    1.7091    0.9858 C.3     1  UNL1        0.1677
      9 C          -1.3923    0.0146    1.9318 C.3     1  UNL1       -0.0263
     10 C           0.1913   -0.3568    0.0619 C.ar    1  UNL1        0.0116
     11 C          -1.3692    1.7865   -1.5187 C.3     1  UNL1       -0.0410
     12 C          -1.5287   -1.3998   -1.3973 C.3     1  UNL1       -0.0113
     13 C          -2.3084   -1.1802    1.6106 C.3     1  UNL1       -0.0002
     14 C          -0.1293   -1.3493   -0.8437 C.ar    1  UNL1       -0.0383
     15 C          -0.6812    3.0512   -1.0179 C.3     1  UNL1        0.0099
     16 C           0.5127    2.7002   -0.1588 C.2     1  UNL1        0.1744
     17 C           1.4804   -0.1040    0.4845 C.ar    1  UNL1        0.1670
     18 C          -4.0951   -2.0444    0.2296 C.3     1  UNL1       -0.0125
     19 C           0.9115   -2.1800   -1.2590 C.ar    1  UNL1       -0.0546
     20 C           2.5194   -0.9193    0.0984 C.ar    1  UNL1        0.1618
     21 C           2.2219   -1.9754   -0.7749 C.ar    1  UNL1       -0.0160
     22 C           4.7963   -1.6044    0.0553 C.3     1  UNL1        0.0790
     23 H          -2.6210    1.5749    0.1766 H       1  UNL1        0.0326
     24 H          -3.3218   -0.1785   -1.4660 H       1  UNL1        0.0469
     25 H           0.0090    2.2910    1.8721 H       1  UNL1        0.0823
     26 H          -1.9861    0.7896    2.4351 H       1  UNL1        0.0287
     27 H          -0.6302   -0.3089    2.6525 H       1  UNL1        0.0287
     28 H          -2.2185    2.0621   -2.1548 H       1  UNL1        0.0273
     29 H          -0.6754    1.2174   -2.1475 H       1  UNL1        0.0273
     30 H          -1.4627   -1.1366   -2.4616 H       1  UNL1        0.0329
     31 H          -1.9021   -2.4278   -1.3588 H       1  UNL1        0.0329
     32 H          -2.8970   -1.4001    2.5102 H       1  UNL1        0.0427
     33 H          -1.6996   -2.0722    1.4176 H       1  UNL1        0.0427
     34 H          -1.3634    3.6711   -0.4266 H       1  UNL1        0.0343
     35 H          -0.3381    3.6450   -1.8720 H       1  UNL1        0.0343
     36 H          -4.7850   -1.8233   -0.5921 H       1  UNL1        0.0391
     37 H          -4.7162   -2.2464    1.1097 H       1  UNL1        0.0391
     38 H          -3.5505   -2.9627   -0.0116 H       1  UNL1        0.0391
     39 H           0.7248   -2.9786   -1.9722 H       1  UNL1        0.0622
     40 H           2.9736   -2.6658   -1.1456 H       1  UNL1        0.0655
     41 H           4.9139   -1.5527   -1.0323 H       1  UNL1        0.0660
     42 H           4.6038   -2.6253    0.4020 H       1  UNL1        0.0660
     43 H           5.7454   -1.2861    0.4984 H       1  UNL1        0.0660
@<TRIPOS>BOND
     1     1     8    1
     2     1    17    1
     3     2    16    2
     4     3    20    1
     5     3    22    1
     6     4     7    1
     7     4    13    1
     8     4    18    1
     9     5     6    1
    10     5     8    1
    11     5     9    1
    12     5    10    1
    13     6     7    1
    14     6    11    1
    15     6    23    1
    16     7    12    1
    17     7    24    1
    18     8    16    1
    19     8    25    1
    20     9    13    1
    21     9    26    1
    22     9    27    1
    23    10    14   ar
    24    10    17   ar
    25    11    15    1
    26    11    28    1
    27    11    29    1
    28    12    14    1
    29    12    30    1
    30    12    31    1
    31    13    32    1
    32    13    33    1
    33    14    19   ar
    34    15    16    1
    35    15    34    1
    36    15    35    1
    37    17    20   ar
    38    18    36    1
    39    18    37    1
    40    18    38    1
    41    19    21   ar
    42    19    39    1
    43    20    21   ar
    44    21    40    1
    45    22    41    1
    46    22    42    1
    47    22    43    1
@<TRIPOS>MOLECULE
5284371
 43 47 0 0 0
SMALL
GASTEIGER

@<TRIPOS>ATOM
      1 O          -1.5926   -1.0371    1.1890 O.3     1  UNL1       -0.4811
      2 O          -1.8298   -3.2224   -0.2208 O.3     1  UNL1       -0.3841
      3 O          -3.7490    0.7880    0.5181 O.3     1  UNL1       -0.4914
      4 N           3.2987    0.7132    0.4612 N.3     1  UNL1       -0.3015
      5 C           0.7585   -0.6767    0.6654 C.3     1  UNL1        0.0480
      6 C           1.8071   -1.0215   -0.4031 C.3     1  UNL1        0.0064
      7 C           2.5499    0.3087   -0.7532 C.3     1  UNL1        0.0213
      8 C          -0.3170   -1.7404    0.9876 C.3     1  UNL1        0.1399
      9 C           1.4691   -0.1453    1.9259 C.3     1  UNL1       -0.0263
     10 C          -0.1533    0.3674    0.1106 C.ar    1  UNL1        0.0116
     11 C           1.5897    1.4045   -1.3316 C.3     1  UNL1       -0.0110
     12 C           2.4454    1.0021    1.6181 C.3     1  UNL1       -0.0001
     13 C           0.1967    1.3820   -0.7621 C.ar    1  UNL1       -0.0383
     14 C          -0.4599   -2.8532   -0.0835 C.3     1  UNL1        0.1110
     15 C           1.1865   -1.7246   -1.5833 C.2     1  UNL1       -0.0799
     16 C          -1.4545    0.1347    0.4954 C.ar    1  UNL1        0.1666
     17 C           0.1370   -2.5460   -1.4311 C.2     1  UNL1       -0.0559
     18 C           4.2548    1.7894    0.2223 C.3     1  UNL1       -0.0124
     19 C          -0.8133    2.2630   -1.1520 C.ar    1  UNL1       -0.0546
     20 C          -2.4665    0.9951    0.1305 C.ar    1  UNL1        0.1618
     21 C          -2.1323    2.0799   -0.6902 C.ar    1  UNL1       -0.0160
     22 C          -4.7250    1.7390    0.0868 C.3     1  UNL1        0.0790
     23 H           2.5432   -1.7265    0.0124 H       1  UNL1        0.0368
     24 H           3.2945    0.0818   -1.5287 H       1  UNL1        0.0472
     25 H          -0.0988   -2.2310    1.9450 H       1  UNL1        0.0772
     26 H           2.0307   -0.9692    2.3866 H       1  UNL1        0.0287
     27 H           0.7460    0.1975    2.6771 H       1  UNL1        0.0287
     28 H           1.4978    1.2209   -2.4108 H       1  UNL1        0.0329
     29 H           2.0137    2.4078   -1.2265 H       1  UNL1        0.0329
     30 H           1.8878    1.9354    1.4711 H       1  UNL1        0.0427
     31 H           3.0705    1.1554    2.5067 H       1  UNL1        0.0427
     32 H           0.0666   -3.7461    0.2781 H       1  UNL1        0.0675
     33 H           1.6268   -1.5936   -2.5669 H       1  UNL1        0.0573
     34 H          -0.2529   -3.0700   -2.2991 H       1  UNL1        0.0596
     35 H           3.7733    2.7539    0.0327 H       1  UNL1        0.0391
     36 H           4.9052    1.5529   -0.6269 H       1  UNL1        0.0391
     37 H           4.9119    1.9100    1.0911 H       1  UNL1        0.0391
     38 H          -0.5953    3.0800   -1.8348 H       1  UNL1        0.0622
     39 H          -2.8599    2.8061   -1.0394 H       1  UNL1        0.0655
     40 H          -2.1650   -3.4351    0.6669 H       1  UNL1        0.2104
     41 H          -4.5125    2.7381    0.4819 H       1  UNL1        0.0660
     42 H          -5.6882    1.4255    0.5022 H       1  UNL1        0.0660
     43 H          -4.8280    1.7389   -1.0034 H       1  UNL1        0.0660
@<TRIPOS>BOND
     1     1     8    1
     2     1    16    1
     3     2    14    1
     4     2    40    1
     5     3    20    1
     6     3    22    1
     7     4     7    1
     8     4    12    1
     9     4    18    1
    10     5     6    1
    11     5     8    1
    12     5     9    1
    13     5    10    1
    14     6     7    1
    15     6    15    1
    16     6    23    1
    17     7    11    1
    18     7    24    1
    19     8    14    1
    20     8    25    1
    21     9    12    1
    22     9    26    1
    23     9    27    1
    24    10    13   ar
    25    10    16   ar
    26    11    13    1
    27    11    28    1
    28    11    29    1
    29    12    30    1
    30    12    31    1
    31    13    19   ar
    32    14    17    1
    33    14    32    1
    34    15    17    2
    35    15    33    1
    36    16    20   ar
    37    17    34    1
    38    18    35    1
    39    18    36    1
    40    18    37    1
    41    19    21   ar
    42    19    38    1
    43    20    21   ar
    44    21    39    1
    45    22    41    1
    46    22    42    1
    47    22    43    1
@<TRIPOS>MOLECULE
5284570
 40 44 0 0 0
SMALL
GASTEIGER

@<TRIPOS>ATOM
      1 O          -1.9776   -0.4511    1.2518 O.3     1  UNL1       -0.4765
      2 O          -2.6189   -2.5568   -0.3366 O.2     1  UNL1       -0.2934
      3 O          -3.6587    1.8272    0.5391 O.3     1  UNL1       -0.5033
      4 N           3.1415    0.1445    0.4790 N.3     1  UNL1       -0.3018
      5 C           0.3589   -0.6703    0.6638 C.3     1  UNL1        0.0488
      6 C           1.3411   -1.2844   -0.3401 C.3     1  UNL1       -0.0111
      7 C           2.3486   -0.1614   -0.7366 C.3     1  UNL1        0.0179
      8 C          -0.9329   -1.4379    0.9850 C.3     1  UNL1        0.1677
      9 C           1.1445   -0.2635    1.9289 C.3     1  UNL1       -0.0263
     10 C          -0.2871    0.5300    0.0681 C.ar    1  UNL1        0.0116
     11 C           0.6319   -1.9473   -1.5276 C.3     1  UNL1       -0.0410
     12 C           1.6452    1.0773   -1.3957 C.3     1  UNL1       -0.0113
     13 C           2.3477    0.6415    1.6077 C.3     1  UNL1       -0.0002
     14 C           0.2860    1.4036   -0.8356 C.ar    1  UNL1       -0.0383
     15 C          -0.3701   -2.9819   -1.0280 C.3     1  UNL1        0.0099
     16 C          -1.4219   -2.3260   -0.1620 C.2     1  UNL1        0.1744
     17 C          -1.5951    0.6323    0.4959 C.ar    1  UNL1        0.1668
     18 C           4.2962    0.9982    0.2213 C.3     1  UNL1       -0.0125
     19 C          -0.4937    2.4862   -1.2430 C.ar    1  UNL1       -0.0546
     20 C          -2.3770    1.6994    0.1178 C.ar    1  UNL1        0.1588
     21 C          -1.8089    2.6402   -0.7533 C.ar    1  UNL1       -0.0162
     22 H           1.9004   -2.0890    0.1625 H       1  UNL1        0.0326
     23 H           3.0422   -0.5820   -1.4772 H       1  UNL1        0.0469
     24 H          -0.8191   -2.0773    1.8679 H       1  UNL1        0.0823
     25 H           1.5091   -1.1722    2.4267 H       1  UNL1        0.0287
     26 H           0.5004    0.2502    2.6545 H       1  UNL1        0.0287
     27 H           1.3731   -2.4389   -2.1686 H       1  UNL1        0.0273
     28 H           0.1151   -1.2092   -2.1511 H       1  UNL1        0.0273
     29 H           1.5069    0.8468   -2.4606 H       1  UNL1        0.0329
     30 H           2.2822    1.9663   -1.3553 H       1  UNL1        0.0329
     31 H           2.0014    1.6655    1.4207 H       1  UNL1        0.0427
     32 H           2.9771    0.6902    2.5053 H       1  UNL1        0.0427
     33 H           0.1218   -3.7656   -0.4421 H       1  UNL1        0.0343
     34 H          -0.8637   -3.4571   -1.8826 H       1  UNL1        0.0343
     35 H           4.9520    1.0211    1.0990 H       1  UNL1        0.0391
     36 H           4.0186    2.0305   -0.0141 H       1  UNL1        0.0391
     37 H           4.8978    0.6032   -0.6046 H       1  UNL1        0.0391
     38 H          -0.1024    3.2082   -1.9546 H       1  UNL1        0.0622
     39 H          -2.3979    3.4915   -1.0872 H       1  UNL1        0.0655
     40 H          -3.8656    1.0762    1.1223 H       1  UNL1        0.2923
@<TRIPOS>BOND
     1     1     8    1
     2     1    17    1
     3     2    16    2
     4     3    20    1
     5     3    40    1
     6     4     7    1
     7     4    13    1
     8     4    18    1
     9     5     6    1
    10     5     8    1
    11     5     9    1
    12     5    10    1
    13     6     7    1
    14     6    11    1
    15     6    22    1
    16     7    12    1
    17     7    23    1
    18     8    16    1
    19     8    24    1
    20     9    13    1
    21     9    25    1
    22     9    26    1
    23    10    14   ar
    24    10    17   ar
    25    11    15    1
    26    11    27    1
    27    11    28    1
    28    12    14    1
    29    12    29    1
    30    12    30    1
    31    13    31    1
    32    13    32    1
    33    14    19   ar
    34    15    16    1
    35    15    33    1
    36    15    34    1
    37    17    20   ar
    38    18    35    1
    39    18    36    1
    40    18    37    1
    41    19    21   ar
    42    19    38    1
    43    20    21   ar
    44    21    39    1
@<TRIPOS>MOLECULE
5284603
 44 48 0 0 0
SMALL
GASTEIGER

@<TRIPOS>ATOM
      1 O          -1.5733    1.1048   -1.2494 O.3     1  UNL1       -0.4764
      2 O           2.8706    1.4889   -0.2605 O.3     1  UNL1       -0.3860
      3 O          -1.4839    3.2947    0.3380 O.2     1  UNL1       -0.2934
      4 O          -3.9470   -0.4470   -0.5476 O.3     1  UNL1       -0.4914
      5 N           2.9881   -1.2626   -0.4685 N.3     1  UNL1       -0.2993
      6 C           0.6891    0.5030   -0.6438 C.3     1  UNL1        0.0746
      7 C           1.8193    0.7378    0.3692 C.3     1  UNL1        0.0957
      8 C           2.3704   -0.6783    0.7505 C.3     1  UNL1        0.0438
      9 C          -0.2549    1.6729   -0.9650 C.3     1  UNL1        0.1701
     10 C           1.2628   -0.1639   -1.9164 C.3     1  UNL1       -0.0238
     11 C          -0.3385   -0.3970   -0.0492 C.ar    1  UNL1        0.0141
     12 C           1.3513    1.5806    1.5690 C.3     1  UNL1       -0.0147
     13 C           1.2771   -1.5832    1.4218 C.3     1  UNL1       -0.0089
     14 C           2.0651   -1.4385   -1.5944 C.3     1  UNL1        0.0000
     15 C          -0.1091   -1.4152    0.8564 C.ar    1  UNL1       -0.0382
     16 C           0.7455    2.9029    1.1010 C.3     1  UNL1        0.0123
     17 C          -0.4374    2.6614    0.1907 C.2     1  UNL1        0.1745
     18 C          -1.5976   -0.0407   -0.4882 C.ar    1  UNL1        0.1671
     19 C           3.7561   -2.4759   -0.2113 C.3     1  UNL1       -0.0124
     20 C          -1.2189   -2.1586    1.2581 C.ar    1  UNL1       -0.0546
     21 C          -2.7035   -0.7697   -0.1163 C.ar    1  UNL1        0.1618
     22 C          -2.5027   -1.8471    0.7590 C.ar    1  UNL1       -0.0160
     23 C          -5.0287   -1.2690   -0.1029 C.3     1  UNL1        0.0790
     24 H           3.1853   -0.5354    1.4731 H       1  UNL1        0.0494
     25 H           0.0806    2.2435   -1.8384 H       1  UNL1        0.0824
     26 H           1.9153    0.5465   -2.4404 H       1  UNL1        0.0288
     27 H           0.4665   -0.4231   -2.6265 H       1  UNL1        0.0288
     28 H           2.2074    1.8052    2.2170 H       1  UNL1        0.0298
     29 H           0.6175    1.0451    2.1808 H       1  UNL1        0.0298
     30 H           1.2288   -1.3083    2.4839 H       1  UNL1        0.0329
     31 H           1.5599   -2.6400    1.3925 H       1  UNL1        0.0329
     32 H           1.3755   -2.2707   -1.4056 H       1  UNL1        0.0427
     33 H           2.6321   -1.7106   -2.4936 H       1  UNL1        0.0427
     34 H           1.4703    3.5322    0.5761 H       1  UNL1        0.0344
     35 H           0.3986    3.4647    1.9757 H       1  UNL1        0.0344
     36 H           2.4730    2.2073   -0.7799 H       1  UNL1        0.2103
     37 H           4.3562   -2.7360   -1.0906 H       1  UNL1        0.0391
     38 H           3.1243   -3.3374    0.0270 H       1  UNL1        0.0391
     39 H           4.4628   -2.3246    0.6119 H       1  UNL1        0.0391
     40 H          -1.1062   -2.9713    1.9708 H       1  UNL1        0.0622
     41 H          -3.3124   -2.4747    1.1193 H       1  UNL1        0.0655
     42 H          -4.9148   -2.3020   -0.4487 H       1  UNL1        0.0660
     43 H          -5.9433   -0.8749   -0.5576 H       1  UNL1        0.0660
     44 H          -5.1555   -1.2086    0.9831 H       1  UNL1        0.0660
@<TRIPOS>BOND
     1     1     9    1
     2     1    18    1
     3     2     7    1
     4     2    36    1
     5     3    17    2
     6     4    21    1
     7     4    23    1
     8     5     8    1
     9     5    14    1
    10     5    19    1
    11     6     7    1
    12     6     9    1
    13     6    10    1
    14     6    11    1
    15     7     8    1
    16     7    12    1
    17     8    13    1
    18     8    24    1
    19     9    17    1
    20     9    25    1
    21    10    14    1
    22    10    26    1
    23    10    27    1
    24    11    15   ar
    25    11    18   ar
    26    12    16    1
    27    12    28    1
    28    12    29    1
    29    13    15    1
    30    13    30    1
    31    13    31    1
    32    14    32    1
    33    14    33    1
    34    15    20   ar
    35    16    17    1
    36    16    34    1
    37    16    35    1
    38    18    21   ar
    39    19    37    1
    40    19    38    1
    41    19    39    1
    42    20    22   ar
    43    20    40    1
    44    21    22   ar
    45    22    41    1
    46    23    42    1
    47    23    43    1
    48    23    44    1
@<TRIPOS>MOLECULE
119
 16 15 0 0 0
SMALL
GASTEIGER

@<TRIPOS>ATOM
      1 O          -2.7304    0.7113    0.0340 O.3     1  UNL1       -0.4806
      2 O          -1.6893   -1.3065   -0.0235 O.2     1  UNL1       -0.2510
      3 N           3.3244   -0.3603    0.0278 N.3     1  UNL1       -0.3300
      4 C           0.8770   -0.2175    0.0236 C.3     1  UNL1       -0.0306
      5 C          -0.3425    0.6976   -0.0316 C.3     1  UNL1        0.0459
      6 C           2.1933    0.5590   -0.0314 C.3     1  UNL1       -0.0064
      7 C          -1.6326   -0.0835    0.0011 C.2     1  UNL1        0.3047
      8 H           0.8387   -0.8168    0.9431 H       1  UNL1        0.0283
      9 H           0.8363   -0.9285   -0.8123 H       1  UNL1        0.0283
     10 H          -0.3262    1.2875   -0.9545 H       1  UNL1        0.0378
     11 H          -0.3327    1.3780    0.8269 H       1  UNL1        0.0378
     12 H           2.2528    1.1429   -0.9560 H       1  UNL1        0.0422
     13 H           2.2567    1.2609    0.8069 H       1  UNL1        0.0422
     14 H           3.2661   -1.0248   -0.7431 H       1  UNL1        0.1182
     15 H           3.2696   -0.9161    0.8806 H       1  UNL1        0.1182
     16 H          -3.5607    0.1889    0.0430 H       1  UNL1        0.2951
@<TRIPOS>BOND
     1     1     7    1
     2     1    16    1
     3     2     7    2
     4     3     6    1
     5     3    14    1
     6     3    15    1
     7     4     5    1
     8     4     6    1
     9     4     8    1
    10     4     9    1
    11     5     7    1
    12     5    10    1
    13     5    11    1
    14     6    12    1
    15     6    13    1
@<TRIPOS>MOLECULE
5284543
 45 49 0 0 0
SMALL
GASTEIGER

@<TRIPOS>ATOM
      1 O           1.5130    1.0870    1.3332 O.3     1  UNL1       -0.4814
      2 O           1.4079    2.5389   -0.9498 O.3     1  UNL1       -0.3881
      3 O           3.8142   -0.5467    0.5720 O.3     1  UNL1       -0.4914
      4 N          -3.1303   -1.0876    0.4603 N.3     1  UNL1       -0.3018
      5 C          -0.7730    0.5982    0.7058 C.3     1  UNL1        0.0443
      6 C          -1.9312    0.9156   -0.2418 C.3     1  UNL1       -0.0117
      7 C           0.2145    1.7244    1.0659 C.3     1  UNL1        0.1360
      8 C          -2.5112   -0.4479   -0.7269 C.3     1  UNL1        0.0178
      9 C          -1.3589   -0.1182    1.9457 C.3     1  UNL1       -0.0266
     10 C           0.2150   -0.3020    0.0589 C.ar    1  UNL1        0.0113
     11 C          -1.5477    1.8871   -1.3599 C.3     1  UNL1       -0.0454
     12 C           0.3827    2.8385   -0.0006 C.3     1  UNL1        0.0928
     13 C          -1.4469   -1.3270   -1.4737 C.3     1  UNL1       -0.0113
     14 C          -0.9099    3.1466   -0.7606 C.3     1  UNL1       -0.0230
     15 C          -2.2007   -1.3512    1.5645 C.3     1  UNL1       -0.0002
     16 C          -0.0555   -1.2536   -0.9036 C.ar    1  UNL1       -0.0383
     17 C           1.4861   -0.0310    0.5276 C.ar    1  UNL1        0.1665
     18 C          -3.9252   -2.2677    0.1384 C.3     1  UNL1       -0.0125
     19 C           1.0220   -2.0222   -1.3429 C.ar    1  UNL1       -0.0546
     20 C           2.5599   -0.7881    0.1200 C.ar    1  UNL1        0.1618
     21 C           2.3152   -1.8016   -0.8187 C.ar    1  UNL1       -0.0160
     22 C           4.8600   -1.3917    0.0862 C.3     1  UNL1        0.0790
     23 H          -2.7157    1.4344    0.3320 H       1  UNL1        0.0326
     24 H          -0.1159    2.2044    1.9963 H       1  UNL1        0.0768
     25 H          -3.3212   -0.2332   -1.4369 H       1  UNL1        0.0469
     26 H          -1.9954    0.5883    2.4957 H       1  UNL1        0.0287
     27 H          -0.5709   -0.4308    2.6431 H       1  UNL1        0.0287
     28 H          -2.4489    2.1725   -1.9160 H       1  UNL1        0.0270
     29 H          -0.8724    1.4249   -2.0868 H       1  UNL1        0.0270
     30 H           0.7250    3.7472    0.5075 H       1  UNL1        0.0630
     31 H          -1.3894   -0.9655   -2.5091 H       1  UNL1        0.0329
     32 H          -1.7662   -2.3723   -1.5316 H       1  UNL1        0.0329
     33 H          -0.7004    3.8500   -1.5753 H       1  UNL1        0.0291
     34 H          -1.6255    3.6305   -0.0848 H       1  UNL1        0.0291
     35 H          -1.5370   -2.1905    1.3223 H       1  UNL1        0.0427
     36 H          -2.7667   -1.6560    2.4537 H       1  UNL1        0.0427
     37 H          -3.3129   -3.1247   -0.1594 H       1  UNL1        0.0391
     38 H          -4.6368   -2.0524   -0.6662 H       1  UNL1        0.0391
     39 H          -4.5215   -2.5697    1.0069 H       1  UNL1        0.0391
     40 H           0.8773   -2.7867   -2.1017 H       1  UNL1        0.0622
     41 H           1.1327    1.7711   -1.4759 H       1  UNL1        0.2099
     42 H           3.0977   -2.4442   -1.2114 H       1  UNL1        0.0655
     43 H           4.9970   -1.2757   -0.9941 H       1  UNL1        0.0660
     44 H           4.6960   -2.4361    0.3721 H       1  UNL1        0.0660
     45 H           5.7886   -1.0669    0.5665 H       1  UNL1        0.0660
@<TRIPOS>BOND
     1     1     7    1
     2     1    17    1
     3     2    12    1
     4     2    41    1
     5     3    20    1
     6     3    22    1
     7     4     8    1
     8     4    15    1
     9     4    18    1
    10     5     6    1
    11     5     7    1
    12     5     9    1
    13     5    10    1
    14     6     8    1
    15     6    11    1
    16     6    23    1
    17     7    12    1
    18     7    24    1
    19     8    13    1
    20     8    25    1
    21     9    15    1
    22     9    26    1
    23     9    27    1
    24    10    16   ar
    25    10    17   ar
    26    11    14    1
    27    11    28    1
    28    11    29    1
    29    12    14    1
    30    12    30    1
    31    13    16    1
    32    13    31    1
    33    13    32    1
    34    14    33    1
    35    14    34    1
    36    15    35    1
    37    15    36    1
    38    16    19   ar
    39    17    20   ar
    40    18    37    1
    41    18    38    1
    42    18    39    1
    43    19    21   ar
    44    19    40    1
    45    20    21   ar
    46    21    42    1
    47    22    43    1
    48    22    44    1
    49    22    45    1
@<TRIPOS>MOLECULE
702
 9 8 0 0 0
SMALL
GASTEIGER

@<TRIPOS>ATOM
      1 O          -1.1712    0.2997    0.0000 O.3     1  UNL1       -0.3953
      2 C          -0.0463   -0.5665    0.0000 C.3     1  UNL1        0.0414
      3 C           1.2175    0.2668    0.0000 C.3     1  UNL1       -0.0418
      4 H          -0.0958   -1.2120    0.8819 H       1  UNL1        0.0554
      5 H          -0.0952   -1.1938   -0.8946 H       1  UNL1        0.0554
      6 H           2.1050   -0.3720   -0.0177 H       1  UNL1        0.0252
      7 H           1.2426    0.9307   -0.8704 H       1  UNL1        0.0252
      8 H           1.2616    0.9052    0.8886 H       1  UNL1        0.0252
      9 H          -1.1291    0.8364    0.8099 H       1  UNL1        0.2094
@<TRIPOS>BOND
     1     1     2    1
     2     1     9    1
     3     2     3    1
     4     2     4    1
     5     2     5    1
     6     3     6    1
     7     3     7    1
     8     3     8    1
@<TRIPOS>MOLECULE
3102
 24 25 0 0 0
SMALL
GASTEIGER

@<TRIPOS>ATOM
      1 O           0.0295   -2.3285   -0.0002 O.2     1  UNL1       -0.2867
      2 C          -1.2788   -0.3897   -0.0003 C.ar    1  UNL1        0.0223
      3 C           1.3050   -0.3680    0.0000 C.ar    1  UNL1        0.0223
      4 C          -0.0038   -1.0889   -0.0002 C.2     1  UNL1        0.1931
      5 C          -1.3098    1.0048    0.0000 C.ar    1  UNL1       -0.0509
      6 C           1.2983    1.0073   -0.0004 C.ar    1  UNL1       -0.0509
      7 C          -2.4710   -1.1137   -0.0001 C.ar    1  UNL1       -0.0509
      8 C           2.4635   -1.1091    0.0004 C.ar    1  UNL1       -0.0509
      9 C          -2.5330    1.6754    0.0003 C.ar    1  UNL1       -0.0611
     10 C           2.5202    1.6802   -0.0004 C.ar    1  UNL1       -0.0611
     11 C          -3.6942   -0.4432    0.0001 C.ar    1  UNL1       -0.0611
     12 C           3.6854   -0.4363    0.0005 C.ar    1  UNL1       -0.0611
     13 C          -3.7251    0.9513    0.0003 C.ar    1  UNL1       -0.0617
     14 C           3.7138    0.9583    0.0001 C.ar    1  UNL1       -0.0617
     15 H          -0.6303    1.6363   -0.5632 H       1  UNL1        0.0625
     16 H           0.6188    1.6258    0.5762 H       1  UNL1        0.0625
     17 H          -2.4747   -2.2005   -0.0017 H       1  UNL1        0.0625
     18 H           2.4669   -2.1945    0.0021 H       1  UNL1        0.0625
     19 H          -2.5653    2.7563   -0.1109 H       1  UNL1        0.0618
     20 H           2.5503    2.7608    0.1133 H       1  UNL1        0.0618
     21 H          -4.6228   -1.0067   -0.0062 H       1  UNL1        0.0618
     22 H           4.6151   -0.9980    0.0073 H       1  UNL1        0.0618
     23 H          -4.6774    1.4729   -0.0259 H       1  UNL1        0.0618
     24 H           4.6650    1.4817    0.0272 H       1  UNL1        0.0618
@<TRIPOS>BOND
     1     1     4    2
     2     2     4    1
     3     2     5   ar
     4     2     7   ar
     5     3     4    1
     6     3     6   ar
     7     3     8   ar
     8     5     9   ar
     9     5    15    1
    10     6    10   ar
    11     6    16    1
    12     7    11   ar
    13     7    17    1
    14     8    12   ar
    15     8    18    1
    16     9    13   ar
    17     9    19    1
    18    10    14   ar
    19    10    20    1
    20    11    13   ar
    21    11    21    1
    22    12    14   ar
    23    12    22    1
    24    13    23    1
    25    14    24    1
@<TRIPOS>MOLECULE
411697
 43 47 0 0 0
SMALL
GASTEIGER

@<TRIPOS>ATOM
      1 O          -1.5602   -1.0397    1.2438 O.3     1  UNL1       -0.4765
      2 O          -1.6020   -3.2467   -0.3362 O.2     1  UNL1       -0.2934
      3 O          -3.7902    0.6987    0.5140 O.3     1  UNL1       -0.4914
      4 N           3.2121    0.9120    0.4873 N.3     1  UNL1       -0.3018
      5 C           0.7517   -0.6229    0.6655 C.3     1  UNL1        0.0488
      6 C           1.8679   -0.9528   -0.3318 C.3     1  UNL1       -0.0111
      7 C           2.5371    0.3991   -0.7298 C.3     1  UNL1        0.0179
      8 C          -0.2867   -1.7092    0.9856 C.3     1  UNL1        0.1677
      9 C           1.3924   -0.0149    1.9318 C.3     1  UNL1       -0.0263
     10 C          -0.1912    0.3568    0.0620 C.ar    1  UNL1        0.0116
     11 C           1.3691   -1.7865   -1.5190 C.3     1  UNL1       -0.0410
     12 C           1.5288    1.3996   -1.3973 C.3     1  UNL1       -0.0113
     13 C           2.3082    1.1800    1.6108 C.3     1  UNL1       -0.0002
     14 C           0.1293    1.3494   -0.8436 C.ar    1  UNL1       -0.0383
     15 C           0.6811   -3.0512   -1.0182 C.3     1  UNL1        0.0099
     16 C          -0.5125   -2.7004   -0.1588 C.2     1  UNL1        0.1744
     17 C          -1.4803    0.1040    0.4845 C.ar    1  UNL1        0.1670
     18 C           4.0941    2.0453    0.2298 C.3     1  UNL1       -0.0125
     19 C          -0.9113    2.1801   -1.2591 C.ar    1  UNL1       -0.0546
     20 C          -2.5193    0.9194    0.0984 C.ar    1  UNL1        0.1618
     21 C          -2.2218    1.9754   -0.7751 C.ar    1  UNL1       -0.0160
     22 C          -4.7962    1.6046    0.0553 C.3     1  UNL1        0.0790
     23 H           2.6211   -1.5751    0.1764 H       1  UNL1        0.0326
     24 H           3.3220    0.1786   -1.4657 H       1  UNL1        0.0469
     25 H          -0.0091   -2.2910    1.8721 H       1  UNL1        0.0823
     26 H           1.9863   -0.7899    2.4350 H       1  UNL1        0.0287
     27 H           0.6302    0.3084    2.6527 H       1  UNL1        0.0287
     28 H           2.2183   -2.0620   -2.1552 H       1  UNL1        0.0273
     29 H           0.6752   -1.2172   -2.1475 H       1  UNL1        0.0273
     30 H           1.4627    1.1362   -2.4615 H       1  UNL1        0.0329
     31 H           1.9022    2.4277   -1.3591 H       1  UNL1        0.0329
     32 H           1.6992    2.0719    1.4179 H       1  UNL1        0.0427
     33 H           2.8968    1.3998    2.5103 H       1  UNL1        0.0427
     34 H           1.3634   -3.6712   -0.4271 H       1  UNL1        0.0343
     35 H           0.3378   -3.6448   -1.8723 H       1  UNL1        0.0343
     36 H           4.7154    2.2475    1.1096 H       1  UNL1        0.0391
     37 H           3.5490    2.9633   -0.0109 H       1  UNL1        0.0391
     38 H           4.7839    1.8249   -0.5922 H       1  UNL1        0.0391
     39 H          -0.7246    2.9786   -1.9723 H       1  UNL1        0.0622
     40 H          -2.9734    2.6658   -1.1459 H       1  UNL1        0.0655
     41 H          -5.7453    1.2863    0.4985 H       1  UNL1        0.0660
     42 H          -4.9140    1.5529   -1.0323 H       1  UNL1        0.0660
     43 H          -4.6038    2.6256    0.4018 H       1  UNL1        0.0660
@<TRIPOS>BOND
     1     1     8    1
     2     1    17    1
     3     2    16    2
     4     3    20    1
     5     3    22    1
     6     4     7    1
     7     4    13    1
     8     4    18    1
     9     5     6    1
    10     5     8    1
    11     5     9    1
    12     5    10    1
    13     6     7    1
    14     6    11    1
    15     6    23    1
    16     7    12    1
    17     7    24    1
    18     8    16    1
    19     8    25    1
    20     9    13    1
    21     9    26    1
    22     9    27    1
    23    10    14   ar
    24    10    17   ar
    25    11    15    1
    26    11    28    1
    27    11    29    1
    28    12    14    1
    29    12    30    1
    30    12    31    1
    31    13    32    1
    32    13    33    1
    33    14    19   ar
    34    15    16    1
    35    15    34    1
    36    15    35    1
    37    17    20   ar
    38    18    36    1
    39    18    37    1
    40    18    38    1
    41    19    21   ar
    42    19    39    1
    43    20    21   ar
    44    21    40    1
    45    22    41    1
    46    22    42    1
    47    22    43    1
@<TRIPOS>MOLECULE
5288826
 40 44 0 0 0
SMALL
GASTEIGER

@<TRIPOS>ATOM
      1 O          -1.9930   -0.4740    1.2005 O.3     1  UNL1       -0.4811
      2 O          -2.7826   -2.5168   -0.2218 O.3     1  UNL1       -0.3841
      3 O          -3.6220    1.8421    0.5579 O.3     1  UNL1       -0.5033
      4 N           3.1777   -0.0101    0.4474 N.3     1  UNL1       -0.3015
      5 C           0.3699   -0.7149    0.6616 C.3     1  UNL1        0.0480
      6 C           1.2913   -1.3046   -0.4170 C.3     1  UNL1        0.0064
      7 C           2.3441   -0.2023   -0.7640 C.3     1  UNL1        0.0213
      8 C          -0.9377   -1.4750    0.9848 C.3     1  UNL1        0.1399
      9 C           1.1988   -0.3907    1.9201 C.3     1  UNL1       -0.0263
     10 C          -0.2516    0.5302    0.1205 C.ar    1  UNL1        0.0116
     11 C           1.6887    1.1052   -1.3279 C.3     1  UNL1       -0.0110
     12 C           2.4315    0.4754    1.6126 C.3     1  UNL1       -0.0001
     13 C           0.3384    1.4306   -0.7480 C.ar    1  UNL1       -0.0383
     14 C          -1.3631   -2.5067   -0.0924 C.3     1  UNL1        0.1110
     15 C           0.5066   -1.8183   -1.5971 C.2     1  UNL1       -0.0799
     16 C          -1.5672    0.6306    0.5136 C.ar    1  UNL1        0.1663
     17 C          -0.7155   -2.3492   -1.4425 C.2     1  UNL1       -0.0559
     18 C           4.3733    0.7916    0.2084 C.3     1  UNL1       -0.0124
     19 C          -0.4184    2.5415   -1.1246 C.ar    1  UNL1       -0.0546
     20 C          -2.3310    1.7217    0.1620 C.ar    1  UNL1        0.1588
     21 C          -1.7382    2.6936   -0.6541 C.ar    1  UNL1       -0.0162
     22 H           1.8278   -2.1759   -0.0118 H       1  UNL1        0.0368
     23 H           3.0029   -0.6035   -1.5465 H       1  UNL1        0.0472
     24 H          -0.8451   -2.0128    1.9373 H       1  UNL1        0.0772
     25 H           1.5366   -1.3335    2.3712 H       1  UNL1        0.0287
     26 H           0.5899    0.1174    2.6790 H       1  UNL1        0.0287
     27 H           1.5474    0.9596   -2.4075 H       1  UNL1        0.0329
     28 H           2.3530    1.9680   -1.2194 H       1  UNL1        0.0329
     29 H           2.1271    1.5205    1.4760 H       1  UNL1        0.0427
     30 H           3.0801    0.4584    2.4975 H       1  UNL1        0.0427
     31 H          -1.0772   -3.5067    0.2593 H       1  UNL1        0.0675
     32 H           0.9601   -1.7947   -2.5831 H       1  UNL1        0.0573
     33 H          -1.2300   -2.7505   -2.3109 H       1  UNL1        0.0596
     34 H           4.1500    1.8479    0.0287 H       1  UNL1        0.0391
     35 H           4.9380    0.4055   -0.6472 H       1  UNL1        0.0391
     36 H           5.0444    0.7352    1.0730 H       1  UNL1        0.0391
     37 H          -0.0062    3.2824   -1.8043 H       1  UNL1        0.0622
     38 H          -2.3121    3.5638   -0.9645 H       1  UNL1        0.0655
     39 H          -3.1557   -2.6446    0.6672 H       1  UNL1        0.2104
     40 H          -3.8483    1.0686    1.1031 H       1  UNL1        0.2923
@<TRIPOS>BOND
     1     1     8    1
     2     1    16    1
     3     2    14    1
     4     2    39    1
     5     3    20    1
     6     3    40    1
     7     4     7    1
     8     4    12    1
     9     4    18    1
    10     5     6    1
    11     5     8    1
    12     5     9    1
    13     5    10    1
    14     6     7    1
    15     6    15    1
    16     6    22    1
    17     7    11    1
    18     7    23    1
    19     8    14    1
    20     8    24    1
    21     9    12    1
    22     9    25    1
    23     9    26    1
    24    10    13   ar
    25    10    16   ar
    26    11    13    1
    27    11    27    1
    28    11    28    1
    29    12    29    1
    30    12    30    1
    31    13    19   ar
    32    14    17    1
    33    14    31    1
    34    15    17    2
    35    15    32    1
    36    16    20   ar
    37    17    33    1
    38    18    34    1
    39    18    35    1
    40    18    36    1
    41    19    21   ar
    42    19    37    1
    43    20    21   ar
    44    21    38    1
@<TRIPOS>MOLECULE
5324289
 44 48 0 0 0
SMALL
GASTEIGER

@<TRIPOS>ATOM
      1 O          -1.3885    1.2918   -0.7887 O.3     1  UNL1       -0.4760
      2 O          -0.3074    3.7201    0.3071 O.2     1  UNL1       -0.4956
      3 O          -3.9740    0.0376   -0.3859 O.3     1  UNL1       -0.4914
      4 N           2.9222   -1.8716   -0.4179 N.3     1  UNL1       -0.2984
      5 C           0.7655    0.1552   -0.4835 C.3     1  UNL1        0.0673
      6 C           1.7093    0.0066    0.6783 C.2     1  UNL1       -0.0375
      7 C           2.1905   -1.4317    0.7967 C.3     1  UNL1        0.0366
      8 C           0.0563    1.5209   -0.6795 C.3     1  UNL1        0.1701
      9 C           1.4641   -0.3120   -1.7782 C.3     1  UNL1       -0.0227
     10 C          -0.4158   -0.6740   -0.1335 C.ar    1  UNL1        0.0154
     11 C           0.9609   -2.3875    1.0624 C.3     1  UNL1       -0.0078
     12 C           2.1331   -1.6919   -1.6476 C.3     1  UNL1        0.0004
     13 C          -0.3698   -1.8940    0.5286 C.ar    1  UNL1       -0.0377
     14 C          -1.5887   -0.0007   -0.3818 C.ar    1  UNL1        0.1674
     15 C           0.3622    2.5185    0.4163 C.2     1  UNL1        0.1388
     16 C           1.9438    1.0131    1.5315 C.2     1  UNL1       -0.0568
     17 C           1.2525    2.2774    1.3963 C.2     1  UNL1       -0.0204
     18 C          -1.5891   -2.5195    0.7870 C.ar    1  UNL1       -0.0545
     19 C           4.2361   -1.2353   -0.5235 C.3     1  UNL1       -0.0122
     20 C          -2.8042   -0.5994   -0.1311 C.ar    1  UNL1        0.1619
     21 C          -2.7972   -1.8825    0.4362 C.ar    1  UNL1       -0.0160
     22 C           0.4194    4.6274   -0.4978 C.3     1  UNL1        0.0785
     23 C          -5.1812   -0.6683   -0.0915 C.3     1  UNL1        0.0790
     24 H           2.8637   -1.5447    1.6568 H       1  UNL1        0.0512
     25 H           0.3618    1.9650   -1.6354 H       1  UNL1        0.0828
     26 H           2.2302    0.4241   -2.0575 H       1  UNL1        0.0290
     27 H           0.7498   -0.3498   -2.6112 H       1  UNL1        0.0290
     28 H           0.8532   -2.4787    2.1522 H       1  UNL1        0.0332
     29 H           1.1627   -3.3966    0.6821 H       1  UNL1        0.0332
     30 H           1.3612   -2.4701   -1.6862 H       1  UNL1        0.0427
     31 H           2.7545   -1.8807   -2.5323 H       1  UNL1        0.0427
     32 H           2.5897    0.8816    2.3926 H       1  UNL1        0.0619
     33 H           1.4553    3.0296    2.1524 H       1  UNL1        0.0652
     34 H          -1.6184   -3.4795    1.2952 H       1  UNL1        0.0622
     35 H           4.7960   -1.6553   -1.3667 H       1  UNL1        0.0391
     36 H           4.8333   -1.4360    0.3730 H       1  UNL1        0.0391
     37 H           4.1782   -0.1505   -0.6610 H       1  UNL1        0.0391
     38 H          -3.7043   -2.4292    0.6758 H       1  UNL1        0.0655
     39 H          -0.1229    5.5778   -0.5112 H       1  UNL1        0.0660
     40 H           0.4976    4.2747   -1.5315 H       1  UNL1        0.0660
     41 H           1.4178    4.8183   -0.0884 H       1  UNL1        0.0660
     42 H          -6.0144   -0.0165   -0.3732 H       1  UNL1        0.0660
     43 H          -5.2760   -0.8677    0.9812 H       1  UNL1        0.0660
     44 H          -5.2683   -1.5807   -0.6910 H       1  UNL1        0.0660
@<TRIPOS>BOND
     1     1     8    1
     2     1    14    1
     3     2    15    1
     4     2    22    1
     5     3    20    1
     6     3    23    1
     7     4     7    1
     8     4    12    1
     9     4    19    1
    10     5     6    1
    11     5     8    1
    12     5     9    1
    13     5    10    1
    14     6     7    1
    15     6    16    2
    16     7    11    1
    17     7    24    1
    18     8    15    1
    19     8    25    1
    20     9    12    1
    21     9    26    1
    22     9    27    1
    23    10    13   ar
    24    10    14   ar
    25    11    13    1
    26    11    28    1
    27    11    29    1
    28    12    30    1
    29    12    31    1
    30    13    18   ar
    31    14    20   ar
    32    15    17    2
    33    16    17    1
    34    16    32    1
    35    17    33    1
    36    18    21   ar
    37    18    34    1
    38    19    35    1
    39    19    36    1
    40    19    37    1
    41    20    21   ar
    42    21    38    1
    43    22    39    1
    44    22    40    1
    45    22    41    1
    46    23    42    1
    47    23    43    1
    48    23    44    1
@<TRIPOS>MOLECULE
5492619
 46 50 0 0 0
SMALL
GASTEIGER

@<TRIPOS>ATOM
      1 O          -1.6146   -0.4099    1.3175 O.3     1  UNL1       -0.4811
      2 O          -2.3582   -2.5881    0.0839 O.3     1  UNL1       -0.3721
      3 O          -3.3489    1.7850    0.5394 O.3     1  UNL1       -0.4914
      4 N           3.5136    0.1844    0.3861 N.3     1  UNL1       -0.3015
      5 C           0.7419   -0.6050    0.7337 C.3     1  UNL1        0.0480
      6 C           1.6587   -1.2446   -0.3202 C.3     1  UNL1        0.0064
      7 C           2.6584   -0.1352   -0.7826 C.3     1  UNL1        0.0213
      8 C          -0.5263   -1.3850    1.1524 C.3     1  UNL1        0.1401
      9 C           1.5884   -0.1504    1.9390 C.3     1  UNL1       -0.0263
     10 C           0.0586    0.5687    0.1133 C.ar    1  UNL1        0.0116
     11 C           1.9382    1.0976   -1.4297 C.3     1  UNL1       -0.0110
     12 C           2.7781    0.7336    1.5296 C.3     1  UNL1       -0.0001
     13 C          -0.9374   -2.5149    0.1724 C.3     1  UNL1        0.1140
     14 C           0.5910    1.4179   -0.8399 C.ar    1  UNL1       -0.0383
     15 C           0.8657   -1.8801   -1.4336 C.2     1  UNL1       -0.0799
     16 C          -1.2497    0.6512    0.5338 C.ar    1  UNL1        0.1666
     17 C          -0.3303   -2.4420   -1.2034 C.2     1  UNL1       -0.0557
     18 C          -0.2181    2.4661   -1.2819 C.ar    1  UNL1       -0.0546
     19 C           4.6704    1.0084    0.0512 C.3     1  UNL1       -0.0124
     20 C          -2.0644    1.6814    0.1184 C.ar    1  UNL1        0.1618
     21 C          -1.5307    2.6062   -0.7883 C.ar    1  UNL1       -0.0160
     22 C          -2.7732   -3.7358   -0.6414 C.3     1  UNL1        0.0374
     23 C          -4.1110    2.8908    0.0503 C.3     1  UNL1        0.0790
     24 H           2.2389   -2.0601    0.1376 H       1  UNL1        0.0368
     25 H           3.3128   -0.5730   -1.5490 H       1  UNL1        0.0472
     26 H          -0.3896   -1.8396    2.1423 H       1  UNL1        0.0772
     27 H           1.9741   -1.0408    2.4536 H       1  UNL1        0.0287
     28 H           0.9791    0.3939    2.6720 H       1  UNL1        0.0287
     29 H           1.7759    0.8608   -2.4900 H       1  UNL1        0.0329
     30 H           2.5705    1.9905   -1.4083 H       1  UNL1        0.0329
     31 H           2.4295    1.7523    1.3193 H       1  UNL1        0.0427
     32 H           3.4486    0.8117    2.3946 H       1  UNL1        0.0427
     33 H          -0.5765   -3.4545    0.6157 H       1  UNL1        0.0678
     34 H           1.2964   -1.9217   -2.4293 H       1  UNL1        0.0573
     35 H          -0.8049   -2.9263   -2.0494 H       1  UNL1        0.0596
     36 H           0.1490    3.1652   -2.0286 H       1  UNL1        0.0622
     37 H           4.4013    2.0378   -0.2053 H       1  UNL1        0.0391
     38 H           5.2285    0.5762   -0.7867 H       1  UNL1        0.0391
     39 H           5.3645    1.0464    0.8984 H       1  UNL1        0.0391
     40 H          -2.0961    3.4454   -1.1818 H       1  UNL1        0.0655
     41 H          -2.1669   -4.6199   -0.4183 H       1  UNL1        0.0524
     42 H          -2.7980   -3.5359   -1.7161 H       1  UNL1        0.0524
     43 H          -3.8024   -3.9574   -0.3414 H       1  UNL1        0.0524
     44 H          -3.6771    3.8462    0.3641 H       1  UNL1        0.0660
     45 H          -5.1058    2.8238    0.5025 H       1  UNL1        0.0660
     46 H          -4.2452    2.8343   -1.0351 H       1  UNL1        0.0660
@<TRIPOS>BOND
     1     1     8    1
     2     1    16    1
     3     2    13    1
     4     2    22    1
     5     3    20    1
     6     3    23    1
     7     4     7    1
     8     4    12    1
     9     4    19    1
    10     5     6    1
    11     5     8    1
    12     5     9    1
    13     5    10    1
    14     6     7    1
    15     6    15    1
    16     6    24    1
    17     7    11    1
    18     7    25    1
    19     8    13    1
    20     8    26    1
    21     9    12    1
    22     9    27    1
    23     9    28    1
    24    10    14   ar
    25    10    16   ar
    26    11    14    1
    27    11    29    1
    28    11    30    1
    29    12    31    1
    30    12    32    1
    31    13    17    1
    32    13    33    1
    33    14    18   ar
    34    15    17    2
    35    15    34    1
    36    16    20   ar
    37    17    35    1
    38    18    21   ar
    39    18    36    1
    40    19    37    1
    41    19    38    1
    42    19    39    1
    43    20    21   ar
    44    21    40    1
    45    22    41    1
    46    22    42    1
    47    22    43    1
    48    23    44    1
    49    23    45    1
    50    23    46    1
@<TRIPOS>MOLECULE
154732859
 45 48 0 0 0
SMALL
GASTEIGER

@<TRIPOS>ATOM
      1 O           1.8626   -1.4789   -0.6350 O.3     1  UNL1       -0.4765
      2 O           0.9623   -2.8213    1.5311 O.2     1  UNL1       -0.2934
      3 O           4.0475    0.2549    0.2226 O.3     1  UNL1       -0.4914
      4 N          -3.5462    0.8655    0.4488 N.3     1  UNL1       -0.3048
      5 C          -0.3902   -0.7190   -1.1154 C.3     1  UNL1        0.0449
      6 C          -1.8509   -0.6270   -0.6004 C.3     1  UNL1       -0.0114
      7 C          -2.1087    0.6050    0.3348 C.3     1  UNL1        0.0176
      8 C           0.4681   -1.9142   -0.6497 C.3     1  UNL1        0.1674
      9 C           0.4867    0.3419   -0.5553 C.ar    1  UNL1        0.0113
     10 C          -2.2809   -1.9659    0.0233 C.3     1  UNL1       -0.0410
     11 C          -1.3724    1.8853   -0.1435 C.3     1  UNL1       -0.0113
     12 C           0.0998    1.6021   -0.1496 C.ar    1  UNL1       -0.0383
     13 C          -0.3703   -0.6344   -2.6564 C.3     1  UNL1       -0.0513
     14 C          -1.3569   -2.4331    1.1391 C.3     1  UNL1        0.0099
     15 C           0.1031   -2.4172    0.7453 C.2     1  UNL1        0.1744
     16 C           1.7717   -0.1304   -0.3826 C.ar    1  UNL1        0.1670
     17 C           1.0967    2.4667    0.2987 C.ar    1  UNL1       -0.0546
     18 C           2.7771    0.6984    0.0627 C.ar    1  UNL1        0.1618
     19 C           2.4315    2.0184    0.3859 C.ar    1  UNL1       -0.0160
     20 C          -3.8366    1.5610    1.7000 C.3     1  UNL1       -0.0128
     21 C          -4.0110    1.6464   -0.6948 C.3     1  UNL1       -0.0128
     22 C           5.0169    1.1958    0.6904 C.3     1  UNL1        0.0790
     23 H          -2.4966   -0.5096   -1.4806 H       1  UNL1        0.0326
     24 H          -1.7126    0.3380    1.3248 H       1  UNL1        0.0468
     25 H           0.3831   -2.7690   -1.3316 H       1  UNL1        0.0823
     26 H          -2.2912   -2.7290   -0.7668 H       1  UNL1        0.0273
     27 H          -3.3081   -1.9052    0.4005 H       1  UNL1        0.0273
     28 H          -1.5655    2.7341    0.5213 H       1  UNL1        0.0329
     29 H          -1.6331    2.1777   -1.1673 H       1  UNL1        0.0329
     30 H          -0.9369   -1.4630   -3.0963 H       1  UNL1        0.0240
     31 H           0.6471   -0.6799   -3.0631 H       1  UNL1        0.0240
     32 H          -0.8147    0.3042   -3.0085 H       1  UNL1        0.0240
     33 H          -1.6208   -3.4585    1.4200 H       1  UNL1        0.0343
     34 H          -1.4727   -1.7978    2.0231 H       1  UNL1        0.0343
     35 H           0.8502    3.4767    0.6144 H       1  UNL1        0.0622
     36 H           3.1501    2.7459    0.7510 H       1  UNL1        0.0655
     37 H          -4.9186    1.7007    1.8074 H       1  UNL1        0.0391
     38 H          -3.5205    0.9612    2.5611 H       1  UNL1        0.0391
     39 H          -3.3665    2.5469    1.7745 H       1  UNL1        0.0391
     40 H          -5.1084    1.6438   -0.6931 H       1  UNL1        0.0391
     41 H          -3.7139    2.7014   -0.6686 H       1  UNL1        0.0391
     42 H          -3.7266    1.2159   -1.6600 H       1  UNL1        0.0391
     43 H           5.9773    0.6729    0.7419 H       1  UNL1        0.0660
     44 H           4.7819    1.5409    1.7028 H       1  UNL1        0.0660
     45 H           5.1387    2.0274   -0.0118 H       1  UNL1        0.0660
@<TRIPOS>BOND
     1     1     8    1
     2     1    16    1
     3     2    15    2
     4     3    18    1
     5     3    22    1
     6     4     7    1
     7     4    20    1
     8     4    21    1
     9     5     6    1
    10     5     8    1
    11     5     9    1
    12     5    13    1
    13     6     7    1
    14     6    10    1
    15     6    23    1
    16     7    11    1
    17     7    24    1
    18     8    15    1
    19     8    25    1
    20     9    12   ar
    21     9    16   ar
    22    10    14    1
    23    10    26    1
    24    10    27    1
    25    11    12    1
    26    11    28    1
    27    11    29    1
    28    12    17   ar
    29    13    30    1
    30    13    31    1
    31    13    32    1
    32    14    15    1
    33    14    33    1
    34    14    34    1
    35    16    18   ar
    36    17    19   ar
    37    17    35    1
    38    18    19   ar
    39    19    36    1
    40    20    37    1
    41    20    38    1
    42    20    39    1
    43    21    40    1
    44    21    41    1
    45    21    42    1
    46    22    43    1
    47    22    44    1
    48    22    45    1
@<TRIPOS>MOLECULE
5486617
 46 50 0 0 0
SMALL
GASTEIGER

@<TRIPOS>ATOM
      1 O          -1.6885    0.6385   -1.0718 O.3     1  UNL1       -0.4763
      2 O          -1.9178    3.2578    0.1884 O.2     1  UNL1       -0.4959
      3 O          -3.5543   -1.5253   -0.4963 O.3     1  UNL1       -0.4914
      4 N           3.4088   -0.4347   -0.5279 N.3     1  UNL1       -0.3018
      5 C           0.6879    0.5725   -0.5813 C.3     1  UNL1        0.0492
      6 C           1.7089    1.0043    0.4769 C.3     1  UNL1       -0.0079
      7 C           2.6477   -0.2191    0.7260 C.3     1  UNL1        0.0181
      8 C          -0.5237    1.4992   -0.8124 C.3     1  UNL1        0.1664
      9 C           1.4269    0.2269   -1.8912 C.3     1  UNL1       -0.0262
     10 C          -0.0523   -0.6161   -0.0828 C.ar    1  UNL1        0.0116
     11 C           1.8676   -1.4830    1.2421 C.3     1  UNL1       -0.0113
     12 C           1.0585    1.5571    1.7592 C.3     1  UNL1       -0.0260
     13 C           2.5707   -0.7791   -1.6808 C.3     1  UNL1       -0.0002
     14 C           0.4644   -1.6237    0.7099 C.ar    1  UNL1       -0.0383
     15 C          -1.3798   -0.5462   -0.4483 C.ar    1  UNL1        0.1671
     16 C          -0.8343    2.4157    0.3494 C.2     1  UNL1        0.1346
     17 C          -0.1278    2.4373    1.4892 C.2     1  UNL1       -0.0424
     18 C           4.5211   -1.3673   -0.3791 C.3     1  UNL1       -0.0125
     19 C          -0.4019   -2.6628    1.0495 C.ar    1  UNL1       -0.0546
     20 C          -2.2493   -1.5654   -0.1326 C.ar    1  UNL1        0.1618
     21 C          -1.7443   -2.6402    0.6136 C.ar    1  UNL1       -0.0160
     22 C          -1.5151    4.4879   -0.3801 C.3     1  UNL1        0.0785
     23 C          -4.3736   -2.6344   -0.1195 C.3     1  UNL1        0.0790
     24 H           2.3085    1.8298    0.0616 H       1  UNL1        0.0329
     25 H           3.3709    0.0674    1.5013 H       1  UNL1        0.0469
     26 H          -0.3692    2.1108   -1.7094 H       1  UNL1        0.0825
     27 H           1.8471    1.1503   -2.3125 H       1  UNL1        0.0287
     28 H           0.7375   -0.1735   -2.6457 H       1  UNL1        0.0287
     29 H           1.7912   -1.3964    2.3343 H       1  UNL1        0.0329
     30 H           2.4250   -2.4047    1.0484 H       1  UNL1        0.0329
     31 H           1.8125    2.1390    2.3038 H       1  UNL1        0.0312
     32 H           0.7412    0.7589    2.4385 H       1  UNL1        0.0312
     33 H           2.1616   -1.7920   -1.5807 H       1  UNL1        0.0427
     34 H           3.1824   -0.7841   -2.5918 H       1  UNL1        0.0427
     35 H          -0.4288    3.1082    2.2899 H       1  UNL1        0.0606
     36 H           5.1563   -1.0855    0.4678 H       1  UNL1        0.0391
     37 H           5.1603   -1.3371   -1.2688 H       1  UNL1        0.0391
     38 H           4.1948   -2.4025   -0.2387 H       1  UNL1        0.0391
     39 H          -0.0561   -3.4851    1.6702 H       1  UNL1        0.0622
     40 H          -2.3531   -3.4854    0.9203 H       1  UNL1        0.0655
     41 H          -2.4007    5.1233   -0.4774 H       1  UNL1        0.0660
     42 H          -1.0923    4.3485   -1.3808 H       1  UNL1        0.0660
     43 H          -0.7971    5.0105    0.2617 H       1  UNL1        0.0660
     44 H          -5.3793   -2.4401   -0.5059 H       1  UNL1        0.0660
     45 H          -4.4564   -2.7179    0.9692 H       1  UNL1        0.0660
     46 H          -4.0245   -3.5647   -0.5800 H       1  UNL1        0.0660
@<TRIPOS>BOND
     1     1     8    1
     2     1    15    1
     3     2    16    1
     4     2    22    1
     5     3    20    1
     6     3    23    1
     7     4     7    1
     8     4    13    1
     9     4    18    1
    10     5     6    1
    11     5     8    1
    12     5     9    1
    13     5    10    1
    14     6     7    1
    15     6    12    1
    16     6    24    1
    17     7    11    1
    18     7    25    1
    19     8    16    1
    20     8    26    1
    21     9    13    1
    22     9    27    1
    23     9    28    1
    24    10    14   ar
    25    10    15   ar
    26    11    14    1
    27    11    29    1
    28    11    30    1
    29    12    17    1
    30    12    31    1
    31    12    32    1
    32    13    33    1
    33    13    34    1
    34    14    19   ar
    35    15    20   ar
    36    16    17    2
    37    17    35    1
    38    18    36    1
    39    18    37    1
    40    18    38    1
    41    19    21   ar
    42    19    39    1
    43    20    21   ar
    44    21    40    1
    45    22    41    1
    46    22    42    1
    47    22    43    1
    48    23    44    1
    49    23    45    1
    50    23    46    1
@<TRIPOS>MOLECULE
5493384
 48 52 0 0 0
SMALL
GASTEIGER

@<TRIPOS>ATOM
      1 O          -1.6961    0.4905   -1.1279 O.3     1  UNL1       -0.4814
      2 O          -2.1195    3.0693   -0.2823 O.3     1  UNL1       -0.3761
      3 O          -3.4148   -1.7537   -0.4918 O.3     1  UNL1       -0.4914
      4 N           3.5062   -0.1103   -0.3882 N.3     1  UNL1       -0.3018
      5 C           0.7019    0.5842   -0.6693 C.3     1  UNL1        0.0443
      6 C           1.5802    1.1390    0.4598 C.3     1  UNL1       -0.0117
      7 C          -0.5482    1.4023   -1.0511 C.3     1  UNL1        0.1363
      8 C           2.6332    0.0333    0.8007 C.3     1  UNL1        0.0178
      9 C           1.5708    0.2646   -1.9031 C.3     1  UNL1       -0.0266
     10 C           0.0347   -0.6379   -0.1504 C.ar    1  UNL1        0.0113
     11 C           0.7835    1.6230    1.6936 C.3     1  UNL1       -0.0454
     12 C          -0.8086    2.5578   -0.0720 C.3     1  UNL1        0.0959
     13 C           1.9664   -1.3092    1.2748 C.3     1  UNL1       -0.0113
     14 C          -0.6245    2.1487    1.3864 C.3     1  UNL1       -0.0228
     15 C           2.7986   -0.5973   -1.5754 C.3     1  UNL1       -0.0002
     16 C           0.5981   -1.5743    0.6990 C.ar    1  UNL1       -0.0383
     17 C          -1.2954   -0.6581   -0.5008 C.ar    1  UNL1        0.1665
     18 C           4.7141   -0.8872   -0.1298 C.3     1  UNL1       -0.0125
     19 C          -0.2015   -2.6548    1.0750 C.ar    1  UNL1       -0.0546
     20 C          -2.1045   -1.7141   -0.1409 C.ar    1  UNL1        0.1618
     21 C          -1.5387   -2.7325    0.6376 C.ar    1  UNL1       -0.0160
     22 C          -2.3628    4.2071    0.5284 C.3     1  UNL1        0.0370
     23 C          -4.1730   -2.8907   -0.0721 C.3     1  UNL1        0.0790
     24 H           2.1129    2.0230    0.0766 H       1  UNL1        0.0326
     25 H          -0.4564    1.8316   -2.0571 H       1  UNL1        0.0768
     26 H           3.2576    0.4092    1.6223 H       1  UNL1        0.0469
     27 H           1.9192    1.2105   -2.3400 H       1  UNL1        0.0287
     28 H           0.9824   -0.2402   -2.6804 H       1  UNL1        0.0287
     29 H           1.3651    2.4230    2.1709 H       1  UNL1        0.0270
     30 H           0.7002    0.8414    2.4571 H       1  UNL1        0.0270
     31 H          -0.0846    3.3515   -0.3047 H       1  UNL1        0.0633
     32 H           1.8517   -1.2468    2.3653 H       1  UNL1        0.0329
     33 H           2.6128   -2.1722    1.0871 H       1  UNL1        0.0329
     34 H          -1.3708    1.3887    1.6513 H       1  UNL1        0.0291
     35 H          -0.8145    2.9772    2.0769 H       1  UNL1        0.0291
     36 H           2.4985   -1.6457   -1.4563 H       1  UNL1        0.0427
     37 H           3.4693   -0.5670   -2.4432 H       1  UNL1        0.0427
     38 H           5.4041   -0.8048   -0.9774 H       1  UNL1        0.0391
     39 H           4.5130   -1.9504    0.0337 H       1  UNL1        0.0391
     40 H           5.2490   -0.4973    0.7431 H       1  UNL1        0.0391
     41 H           0.1901   -3.4241    1.7353 H       1  UNL1        0.0622
     42 H          -2.0981   -3.5991    0.9764 H       1  UNL1        0.0655
     43 H          -1.5073    4.8898    0.5562 H       1  UNL1        0.0524
     44 H          -2.6624    3.9107    1.5375 H       1  UNL1        0.0524
     45 H          -3.2079    4.7490    0.0927 H       1  UNL1        0.0524
     46 H          -4.2426   -2.9427    1.0195 H       1  UNL1        0.0660
     47 H          -3.7788   -3.8162   -0.5051 H       1  UNL1        0.0660
     48 H          -5.1902   -2.7616   -0.4555 H       1  UNL1        0.0660
@<TRIPOS>BOND
     1     1     7    1
     2     1    17    1
     3     2    12    1
     4     2    22    1
     5     3    20    1
     6     3    23    1
     7     4     8    1
     8     4    15    1
     9     4    18    1
    10     5     6    1
    11     5     7    1
    12     5     9    1
    13     5    10    1
    14     6     8    1
    15     6    11    1
    16     6    24    1
    17     7    12    1
    18     7    25    1
    19     8    13    1
    20     8    26    1
    21     9    15    1
    22     9    27    1
    23     9    28    1
    24    10    16   ar
    25    10    17   ar
    26    11    14    1
    27    11    29    1
    28    11    30    1
    29    12    14    1
    30    12    31    1
    31    13    16    1
    32    13    32    1
    33    13    33    1
    34    14    34    1
    35    14    35    1
    36    15    36    1
    37    15    37    1
    38    16    19   ar
    39    17    20   ar
    40    18    38    1
    41    18    39    1
    42    18    40    1
    43    19    21   ar
    44    19    41    1
    45    20    21   ar
    46    21    42    1
    47    22    43    1
    48    22    44    1
    49    22    45    1
    50    23    46    1
    51    23    47    1
    52    23    48    1
@<TRIPOS>MOLECULE
5459910
 41 45 0 0 0
SMALL
GASTEIGER

@<TRIPOS>ATOM
      1 O           1.6779    0.6777    1.2986 O.3     1  UNL1       -0.4761
      2 O           2.0846    3.0545   -0.1345 O.2     1  UNL1       -0.2887
      3 O           3.5672   -1.4479    0.6220 O.3     1  UNL1       -0.4914
      4 N          -3.3444   -0.3819    0.4537 N.3     1  UNL1       -0.3015
      5 C          -0.6572    0.6862    0.6809 C.3     1  UNL1        0.0525
      6 C          -1.6751    1.2221   -0.3275 C.3     1  UNL1        0.0070
      7 C          -2.5661    0.0084   -0.7480 C.3     1  UNL1        0.0213
      8 C          -1.4160    0.2119    1.9370 C.3     1  UNL1       -0.0260
      9 C           0.5557    1.5679    0.9928 C.3     1  UNL1        0.1719
     10 C           0.1009   -0.4550    0.0967 C.ar    1  UNL1        0.0119
     11 C          -1.7416   -1.1497   -1.4131 C.3     1  UNL1       -0.0110
     12 C          -2.5255   -0.8005    1.5969 C.3     1  UNL1       -0.0001
     13 C          -0.3740   -1.3664   -0.8246 C.ar    1  UNL1       -0.0383
     14 C          -1.0338    1.9697   -1.4628 C.2     1  UNL1       -0.0750
     15 C           1.4060   -0.4419    0.5464 C.ar    1  UNL1        0.1671
     16 C           1.0157    2.4446   -0.1742 C.2     1  UNL1        0.1969
     17 C           0.1754    2.5387   -1.3963 C.2     1  UNL1       -0.0190
     18 C          -4.4022   -1.3471    0.1740 C.3     1  UNL1       -0.0124
     19 C           0.5053   -2.3740   -1.2211 C.ar    1  UNL1       -0.0546
     20 C           2.2863   -1.4337    0.1802 C.ar    1  UNL1        0.1618
     21 C           1.8190   -2.4163   -0.7049 C.ar    1  UNL1       -0.0160
     22 C           4.5419   -0.7674   -0.1721 C.3     1  UNL1        0.0790
     23 H          -2.3220    1.9643    0.1655 H       1  UNL1        0.0368
     24 H          -3.2891    0.3651   -1.4946 H       1  UNL1        0.0472
     25 H          -1.8695    1.0832    2.4286 H       1  UNL1        0.0288
     26 H          -0.7373   -0.2404    2.6716 H       1  UNL1        0.0288
     27 H           0.3751    2.2227    1.8529 H       1  UNL1        0.0827
     28 H          -1.5975   -0.8842   -2.4692 H       1  UNL1        0.0329
     29 H          -2.2996   -2.0912   -1.4061 H       1  UNL1        0.0329
     30 H          -2.0819   -1.7878    1.4172 H       1  UNL1        0.0427
     31 H          -3.1625   -0.9078    2.4839 H       1  UNL1        0.0427
     32 H          -1.6168    2.0994   -2.3709 H       1  UNL1        0.0577
     33 H           0.5740    3.0979   -2.2354 H       1  UNL1        0.0650
     34 H          -4.0172   -2.3451   -0.0576 H       1  UNL1        0.0391
     35 H          -5.0261   -1.0124   -0.6620 H       1  UNL1        0.0391
     36 H          -5.0678   -1.4390    1.0398 H       1  UNL1        0.0391
     37 H           0.1936   -3.1218   -1.9452 H       1  UNL1        0.0622
     38 H           2.4862   -3.2111   -1.0313 H       1  UNL1        0.0655
     39 H           5.5124   -0.8616    0.3228 H       1  UNL1        0.0660
     40 H           4.2924    0.2950   -0.2576 H       1  UNL1        0.0660
     41 H           4.6084   -1.2204   -1.1662 H       1  UNL1        0.0660
@<TRIPOS>BOND
     1     1     9    1
     2     1    15    1
     3     2    16    2
     4     3    20    1
     5     3    22    1
     6     4     7    1
     7     4    12    1
     8     4    18    1
     9     5     6    1
    10     5     8    1
    11     5     9    1
    12     5    10    1
    13     6     7    1
    14     6    14    1
    15     6    23    1
    16     7    11    1
    17     7    24    1
    18     8    12    1
    19     8    25    1
    20     8    26    1
    21     9    16    1
    22     9    27    1
    23    10    13   ar
    24    10    15   ar
    25    11    13    1
    26    11    28    1
    27    11    29    1
    28    12    30    1
    29    12    31    1
    30    13    19   ar
    31    14    17    2
    32    14    32    1
    33    15    20   ar
    34    16    17    1
    35    17    33    1
    36    18    34    1
    37    18    35    1
    38    18    36    1
    39    19    21   ar
    40    19    37    1
    41    20    21   ar
    42    21    38    1
    43    22    39    1
    44    22    40    1
    45    22    41    1
