@<TRIPOS>MOLECULE
5359272
 42 45 0 0 0
SMALL
GASTEIGER

@<TRIPOS>ATOM
      1 O           2.5381   -0.4741    0.0000 O.3     1  UNL1       -0.5068
      2 N           6.5124    1.0410    0.0000 N.3     1  UNL1       -0.3018
      3 C           6.0682   -0.4499    0.0000 C.3     1  UNL1        0.0015
      4 C           6.9343    0.0501    0.0000 C.3     1  UNL1       -0.0154
      5 C           6.9343    1.0501    0.0000 C.3     1  UNL1        0.0177
      6 C           5.8652   -0.0800    0.0000 C.3     1  UNL1       -0.0302
      7 C           6.0522   -1.4914    0.0000 C.3     1  UNL1       -0.0430
      8 C           7.8443   -0.4568    0.0000 C.3     1  UNL1       -0.0480
      9 C           5.2022    0.0501    0.0000 C.ar    1  UNL1       -0.0342
     10 C           6.0682    1.5501    0.0000 C.3     1  UNL1       -0.0115
     11 C           5.7815    0.7156    0.0000 C.3     1  UNL1       -0.0003
     12 C           6.9502   -2.0192    0.0000 C.3     1  UNL1       -0.0522
     13 C           7.8523   -1.4984    0.0000 C.3     1  UNL1       -0.0527
     14 C           5.2022    1.0501    0.0000 C.ar    1  UNL1       -0.0419
     15 C           4.3083   -0.4846    0.0000 C.ar    1  UNL1       -0.0162
     16 C           6.7203    2.0192    0.0000 C.3     1  UNL1       -0.0125
     17 C           4.3083    1.5848    0.0000 C.ar    1  UNL1       -0.0548
     18 C           3.4022    0.0293    0.0000 C.ar    1  UNL1        0.1172
     19 C           3.4022    1.0709    0.0000 C.ar    1  UNL1       -0.0199
     20 H           7.6704    0.4751    0.0000 H       1  UNL1        0.0324
     21 H           7.3593    1.7862    0.0000 H       1  UNL1        0.0469
     22 H           5.2704    0.0952    0.0000 H       1  UNL1        0.0286
     23 H           6.4568    0.1053    0.0000 H       1  UNL1        0.0286
     24 H           5.4431   -1.3759    0.0000 H       1  UNL1        0.0274
     25 H           5.8342   -2.0718    0.0000 H       1  UNL1        0.0274
     26 H           8.4559   -0.5581    0.0000 H       1  UNL1        0.0269
     27 H           8.0488    0.1285    0.0000 H       1  UNL1        0.0269
     28 H           6.4668    2.0250    0.0000 H       1  UNL1        0.0328
     29 H           5.6697    2.0250    0.0000 H       1  UNL1        0.0328
     30 H           5.5899    1.3053    0.0000 H       1  UNL1        0.0427
     31 H           5.1751    0.5867    0.0000 H       1  UNL1        0.0427
     32 H           6.5493   -2.4921    0.0000 H       1  UNL1        0.0266
     33 H           7.3475   -2.4951    0.0000 H       1  UNL1        0.0266
     34 H           8.0659   -2.0804    0.0000 H       1  UNL1        0.0265
     35 H           8.4623   -1.3876    0.0000 H       1  UNL1        0.0265
     36 H           4.3154   -1.1045    0.0000 H       1  UNL1        0.0657
     37 H           7.3267    1.8903    0.0000 H       1  UNL1        0.0391
     38 H           6.8492    2.6256    0.0000 H       1  UNL1        0.0391
     39 H           6.1138    2.1481    0.0000 H       1  UNL1        0.0391
     40 H           4.3154    2.2047    0.0000 H       1  UNL1        0.0622
     41 H           2.8665    1.3830    0.0000 H       1  UNL1        0.0654
     42 H           2.0000   -0.1661    0.0000 H       1  UNL1        0.2921
@<TRIPOS>BOND
     1     1    18    1
     2     1    42    1
     3     2     5    1
     4     2    11    1
     5     2    16    1
     6     3     4    1
     7     3     6    1
     8     3     7    1
     9     3     9    1
    10     4     5    1
    11     4     8    1
    12     4    20    1
    13     5    10    1
    14     5    21    1
    15     6    11    1
    16     6    22    1
    17     6    23    1
    18     7    12    1
    19     7    24    1
    20     7    25    1
    21     8    13    1
    22     8    26    1
    23     8    27    1
    24     9    14   ar
    25     9    15   ar
    26    10    14    1
    27    10    28    1
    28    10    29    1
    29    11    30    1
    30    11    31    1
    31    12    13    1
    32    12    32    1
    33    12    33    1
    34    13    34    1
    35    13    35    1
    36    14    17   ar
    37    15    18   ar
    38    15    36    1
    39    16    37    1
    40    16    38    1
    41    16    39    1
    42    17    19   ar
    43    17    40    1
    44    18    19   ar
    45    19    41    1
@<TRIPOS>MOLECULE
91753908
 49 53 0 0 0
SMALL
GASTEIGER

@<TRIPOS>ATOM
      1 O           3.0974   -1.2094    0.0000 O.3     1  UNL1       -0.4839
      2 O           2.8660    1.1399    0.0000 O.3     1  UNL1       -0.4221
      3 O           3.7320    2.6399    0.0000 O.2     1  UNL1       -0.2504
      4 N           7.0267   -2.2133    0.0000 N.3     1  UNL1       -0.3018
      5 C           4.5557   -1.7378    0.0000 C.3     1  UNL1        0.0418
      6 C           5.3793   -2.2133    0.0000 C.3     1  UNL1       -0.0119
      7 C           6.2030   -1.7378    0.0000 C.3     1  UNL1        0.0178
      8 C           3.7320   -2.2133    0.0000 C.3     1  UNL1        0.1104
      9 C           5.1052   -1.0403    0.0000 C.3     1  UNL1       -0.0267
     10 C           4.5557   -0.7867    0.0000 C.ar    1  UNL1        0.0112
     11 C           5.3793   -3.1644    0.0000 C.3     1  UNL1       -0.0477
     12 C           3.7320   -3.1644    0.0000 C.3     1  UNL1       -0.0149
     13 C           6.2030   -0.7867    0.0000 C.3     1  UNL1       -0.0113
     14 C           6.4578   -1.0403    0.0000 C.3     1  UNL1       -0.0002
     15 C           4.5557   -3.6399    0.0000 C.3     1  UNL1       -0.0494
     16 C           5.3793   -0.3112    0.0000 C.ar    1  UNL1       -0.0383
     17 C           3.7320   -0.3112    0.0000 C.ar    1  UNL1        0.1671
     18 C           7.7078   -2.9454    0.0000 C.3     1  UNL1       -0.0125
     19 C           5.3793    0.6399    0.0000 C.ar    1  UNL1       -0.0545
     20 C           3.7320    0.6399    0.0000 C.ar    1  UNL1        0.1733
     21 C           4.5557    1.1154    0.0000 C.ar    1  UNL1       -0.0153
     22 C           2.8660    2.1399    0.0000 C.2     1  UNL1        0.3122
     23 C           2.0000    2.6399    0.0000 C.3     1  UNL1        0.0425
     24 C           2.0000    3.6399    0.0000 C.3     1  UNL1       -0.0552
     25 H           5.9163   -2.5233    0.0000 H       1  UNL1        0.0326
     26 H           6.2037   -2.5878    0.0000 H       1  UNL1        0.0469
     27 H           3.1365   -2.3858    0.0000 H       1  UNL1        0.0742
     28 H           5.2420   -0.4356    0.0000 H       1  UNL1        0.0287
     29 H           4.5456   -0.7735    0.0000 H       1  UNL1        0.0287
     30 H           5.5914   -3.7470    0.0000 H       1  UNL1        0.0269
     31 H           5.9899   -3.0567    0.0000 H       1  UNL1        0.0269
     32 H           3.1215   -3.0567    0.0000 H       1  UNL1        0.0301
     33 H           3.5200   -3.7470    0.0000 H       1  UNL1        0.0301
     34 H           6.8136   -0.8944    0.0000 H       1  UNL1        0.0329
     35 H           6.4151   -0.2041    0.0000 H       1  UNL1        0.0329
     36 H           7.0500   -0.8565    0.0000 H       1  UNL1        0.0427
     37 H           6.3649   -0.4273    0.0000 H       1  UNL1        0.0427
     38 H           4.1572   -4.1149    0.0000 H       1  UNL1        0.0267
     39 H           4.9542   -4.1149    0.0000 H       1  UNL1        0.0267
     40 H           7.2539   -3.3678    0.0000 H       1  UNL1        0.0391
     41 H           8.1302   -3.3994    0.0000 H       1  UNL1        0.0391
     42 H           8.1618   -2.5231    0.0000 H       1  UNL1        0.0391
     43 H           5.9163    0.9499    0.0000 H       1  UNL1        0.0622
     44 H           4.5557    1.7354    0.0000 H       1  UNL1        0.0656
     45 H           1.3894    2.7476    0.0000 H       1  UNL1        0.0375
     46 H           1.7880    2.0573    0.0000 H       1  UNL1        0.0375
     47 H           2.6200    3.6399    0.0000 H       1  UNL1        0.0235
     48 H           2.0000    4.2599    0.0000 H       1  UNL1        0.0235
     49 H           1.3800    3.6399    0.0000 H       1  UNL1        0.0235
@<TRIPOS>BOND
     1     1     8    1
     2     1    17    1
     3     2    20    1
     4     2    22    1
     5     3    22    2
     6     4     7    1
     7     4    14    1
     8     4    18    1
     9     5     6    1
    10     5     8    1
    11     5     9    1
    12     5    10    1
    13     6     7    1
    14     6    11    1
    15     6    25    1
    16     7    13    1
    17     7    26    1
    18     8    12    1
    19     8    27    1
    20     9    14    1
    21     9    28    1
    22     9    29    1
    23    10    16   ar
    24    10    17   ar
    25    11    15    1
    26    11    30    1
    27    11    31    1
    28    12    15    1
    29    12    32    1
    30    12    33    1
    31    13    16    1
    32    13    34    1
    33    13    35    1
    34    14    36    1
    35    14    37    1
    36    15    38    1
    37    15    39    1
    38    16    19   ar
    39    17    20   ar
    40    18    40    1
    41    18    41    1
    42    18    42    1
    43    19    21   ar
    44    19    43    1
    45    20    21   ar
    46    21    44    1
    47    22    23    1
    48    23    24    1
    49    23    45    1
    50    23    46    1
    51    24    47    1
    52    24    48    1
    53    24    49    1
@<TRIPOS>MOLECULE
5360697
 42 45 0 0 0
SMALL
GASTEIGER

@<TRIPOS>ATOM
      1 O           2.5381   -0.4741    0.0000 O.3     1  UNL1       -0.5068
      2 N           6.5124    1.0410    0.0000 N.3     1  UNL1       -0.3018
      3 C           6.0682   -0.4499    0.0000 C.3     1  UNL1        0.0015
      4 C           6.9343    0.0501    0.0000 C.3     1  UNL1       -0.0154
      5 C           6.9343    1.0501    0.0000 C.3     1  UNL1        0.0177
      6 C           5.8652   -0.0800    0.0000 C.3     1  UNL1       -0.0302
      7 C           6.0522   -1.4914    0.0000 C.3     1  UNL1       -0.0430
      8 C           7.8443   -0.4568    0.0000 C.3     1  UNL1       -0.0480
      9 C           5.2022    0.0501    0.0000 C.ar    1  UNL1       -0.0342
     10 C           6.0682    1.5501    0.0000 C.3     1  UNL1       -0.0115
     11 C           5.7815    0.7156    0.0000 C.3     1  UNL1       -0.0003
     12 C           6.9502   -2.0192    0.0000 C.3     1  UNL1       -0.0522
     13 C           7.8523   -1.4984    0.0000 C.3     1  UNL1       -0.0527
     14 C           5.2022    1.0501    0.0000 C.ar    1  UNL1       -0.0419
     15 C           4.3083   -0.4846    0.0000 C.ar    1  UNL1       -0.0162
     16 C           6.7203    2.0192    0.0000 C.3     1  UNL1       -0.0125
     17 C           4.3083    1.5848    0.0000 C.ar    1  UNL1       -0.0548
     18 C           3.4022    0.0293    0.0000 C.ar    1  UNL1        0.1172
     19 C           3.4022    1.0709    0.0000 C.ar    1  UNL1       -0.0199
     20 H           7.6704    0.4751    0.0000 H       1  UNL1        0.0324
     21 H           7.3593    1.7862    0.0000 H       1  UNL1        0.0469
     22 H           5.2704    0.0952    0.0000 H       1  UNL1        0.0286
     23 H           6.4568    0.1053    0.0000 H       1  UNL1        0.0286
     24 H           5.4431   -1.3759    0.0000 H       1  UNL1        0.0274
     25 H           5.8342   -2.0718    0.0000 H       1  UNL1        0.0274
     26 H           8.4559   -0.5581    0.0000 H       1  UNL1        0.0269
     27 H           8.0488    0.1285    0.0000 H       1  UNL1        0.0269
     28 H           6.4668    2.0250    0.0000 H       1  UNL1        0.0328
     29 H           5.6697    2.0250    0.0000 H       1  UNL1        0.0328
     30 H           5.5899    1.3053    0.0000 H       1  UNL1        0.0427
     31 H           5.1751    0.5867    0.0000 H       1  UNL1        0.0427
     32 H           6.5493   -2.4921    0.0000 H       1  UNL1        0.0266
     33 H           7.3475   -2.4951    0.0000 H       1  UNL1        0.0266
     34 H           8.0659   -2.0804    0.0000 H       1  UNL1        0.0265
     35 H           8.4623   -1.3876    0.0000 H       1  UNL1        0.0265
     36 H           4.3154   -1.1045    0.0000 H       1  UNL1        0.0657
     37 H           7.3267    1.8903    0.0000 H       1  UNL1        0.0391
     38 H           6.8492    2.6256    0.0000 H       1  UNL1        0.0391
     39 H           6.1138    2.1481    0.0000 H       1  UNL1        0.0391
     40 H           4.3154    2.2047    0.0000 H       1  UNL1        0.0622
     41 H           2.8665    1.3830    0.0000 H       1  UNL1        0.0654
     42 H           2.0000   -0.1661    0.0000 H       1  UNL1        0.2921
@<TRIPOS>BOND
     1     1    18    1
     2     1    42    1
     3     2     5    1
     4     2    11    1
     5     2    16    1
     6     3     4    1
     7     3     6    1
     8     3     7    1
     9     3     9    1
    10     4     5    1
    11     4     8    1
    12     4    20    1
    13     5    10    1
    14     5    21    1
    15     6    11    1
    16     6    22    1
    17     6    23    1
    18     7    12    1
    19     7    24    1
    20     7    25    1
    21     8    13    1
    22     8    26    1
    23     8    27    1
    24     9    14   ar
    25     9    15   ar
    26    10    14    1
    27    10    28    1
    28    10    29    1
    29    11    30    1
    30    11    31    1
    31    12    13    1
    32    12    32    1
    33    12    33    1
    34    13    34    1
    35    13    35    1
    36    14    17   ar
    37    15    18   ar
    38    15    36    1
    39    16    37    1
    40    16    38    1
    41    16    39    1
    42    17    19   ar
    43    17    40    1
    44    18    19   ar
    45    19    41    1
@<TRIPOS>MOLECULE
3918
 42 45 0 0 0
SMALL
GASTEIGER

@<TRIPOS>ATOM
      1 O           2.5381   -0.4741    0.0000 O.3     1  UNL1       -0.5068
      2 N           6.5124    1.0410    0.0000 N.3     1  UNL1       -0.3018
      3 C           6.0682   -0.4499    0.0000 C.3     1  UNL1        0.0015
      4 C           6.9343    0.0501    0.0000 C.3     1  UNL1       -0.0154
      5 C           6.9343    1.0501    0.0000 C.3     1  UNL1        0.0177
      6 C           5.8652   -0.0800    0.0000 C.3     1  UNL1       -0.0302
      7 C           6.0522   -1.4914    0.0000 C.3     1  UNL1       -0.0430
      8 C           7.8443   -0.4568    0.0000 C.3     1  UNL1       -0.0480
      9 C           5.2022    0.0501    0.0000 C.ar    1  UNL1       -0.0342
     10 C           6.0682    1.5501    0.0000 C.3     1  UNL1       -0.0115
     11 C           5.7815    0.7156    0.0000 C.3     1  UNL1       -0.0003
     12 C           6.9502   -2.0192    0.0000 C.3     1  UNL1       -0.0522
     13 C           7.8523   -1.4984    0.0000 C.3     1  UNL1       -0.0527
     14 C           5.2022    1.0501    0.0000 C.ar    1  UNL1       -0.0419
     15 C           4.3083   -0.4846    0.0000 C.ar    1  UNL1       -0.0162
     16 C           6.7203    2.0192    0.0000 C.3     1  UNL1       -0.0125
     17 C           4.3083    1.5848    0.0000 C.ar    1  UNL1       -0.0548
     18 C           3.4022    0.0293    0.0000 C.ar    1  UNL1        0.1172
     19 C           3.4022    1.0709    0.0000 C.ar    1  UNL1       -0.0199
     20 H           7.4688    0.3642    0.0000 H       1  UNL1        0.0324
     21 H           7.4712    1.3601    0.0000 H       1  UNL1        0.0469
     22 H           5.2704    0.0952    0.0000 H       1  UNL1        0.0286
     23 H           6.4568    0.1053    0.0000 H       1  UNL1        0.0286
     24 H           5.4431   -1.3759    0.0000 H       1  UNL1        0.0274
     25 H           5.8342   -2.0718    0.0000 H       1  UNL1        0.0274
     26 H           8.4559   -0.5581    0.0000 H       1  UNL1        0.0269
     27 H           8.0488    0.1285    0.0000 H       1  UNL1        0.0269
     28 H           6.4668    2.0250    0.0000 H       1  UNL1        0.0328
     29 H           5.6697    2.0250    0.0000 H       1  UNL1        0.0328
     30 H           5.5899    1.3053    0.0000 H       1  UNL1        0.0427
     31 H           5.1751    0.5867    0.0000 H       1  UNL1        0.0427
     32 H           6.5493   -2.4921    0.0000 H       1  UNL1        0.0266
     33 H           7.3475   -2.4951    0.0000 H       1  UNL1        0.0266
     34 H           8.0659   -2.0804    0.0000 H       1  UNL1        0.0265
     35 H           8.4623   -1.3876    0.0000 H       1  UNL1        0.0265
     36 H           4.3154   -1.1045    0.0000 H       1  UNL1        0.0657
     37 H           7.3267    1.8903    0.0000 H       1  UNL1        0.0391
     38 H           6.8492    2.6256    0.0000 H       1  UNL1        0.0391
     39 H           6.1138    2.1481    0.0000 H       1  UNL1        0.0391
     40 H           4.3154    2.2047    0.0000 H       1  UNL1        0.0622
     41 H           2.8665    1.3830    0.0000 H       1  UNL1        0.0654
     42 H           2.0000   -0.1661    0.0000 H       1  UNL1        0.2921
@<TRIPOS>BOND
     1     1    18    1
     2     1    42    1
     3     2     5    1
     4     2    11    1
     5     2    16    1
     6     3     4    1
     7     3     6    1
     8     3     7    1
     9     3     9    1
    10     4     5    1
    11     4     8    1
    12     4    20    1
    13     5    10    1
    14     5    21    1
    15     6    11    1
    16     6    22    1
    17     6    23    1
    18     7    12    1
    19     7    24    1
    20     7    25    1
    21     8    13    1
    22     8    26    1
    23     8    27    1
    24     9    14   ar
    25     9    15   ar
    26    10    14    1
    27    10    28    1
    28    10    29    1
    29    11    30    1
    30    11    31    1
    31    12    13    1
    32    12    32    1
    33    12    33    1
    34    13    34    1
    35    13    35    1
    36    14    17   ar
    37    15    18   ar
    38    15    36    1
    39    16    37    1
    40    16    38    1
    41    16    39    1
    42    17    19   ar
    43    17    40    1
    44    18    19   ar
    45    19    41    1
@<TRIPOS>MOLECULE
169437876
 62 66 0 0 0
SMALL
GASTEIGER

@<TRIPOS>ATOM
      1 O           6.8671   -1.0536    0.0000 O.3     1  UNL1       -0.4608
      2 O           5.1350   -1.0536    0.0000 O.3     1  UNL1       -0.3221
      3 O           6.8671   -3.0536    0.0000 O.3     1  UNL1       -0.3829
      4 O           5.1350   -4.0536    0.0000 O.3     1  UNL1       -0.3863
      5 O           3.4030   -3.0536    0.0000 O.3     1  UNL1       -0.3860
      6 O           2.5369   -1.5536    0.0000 O.3     1  UNL1       -0.4788
      7 O           3.4030   -0.0536    0.0000 O.2     1  UNL1       -0.2480
      8 N           7.5583    3.1431    0.0000 N.3     1  UNL1       -0.3018
      9 C           8.6230    2.0089    0.0000 C.3     1  UNL1        0.0015
     10 C           8.6269    3.0089    0.0000 C.3     1  UNL1       -0.0154
     11 C           7.7628    3.5122    0.0000 C.3     1  UNL1        0.0177
     12 C           8.2012    2.0196    0.0000 C.3     1  UNL1       -0.0302
     13 C           9.5149    1.4708    0.0000 C.3     1  UNL1       -0.0430
     14 C           9.5229    3.5401    0.0000 C.3     1  UNL1       -0.0480
     15 C           7.7551    1.5122    0.0000 C.ar    1  UNL1       -0.0342
     16 C           6.8948    3.0156    0.0000 C.3     1  UNL1       -0.0115
     17 C           7.4716    2.3478    0.0000 C.3     1  UNL1       -0.0003
     18 C          10.4229    1.9811    0.0000 C.3     1  UNL1       -0.0522
     19 C          10.4270    3.0228    0.0000 C.3     1  UNL1       -0.0527
     20 C           6.8910    2.0156    0.0000 C.ar    1  UNL1       -0.0419
     21 C           7.7671    0.4707    0.0000 C.ar    1  UNL1       -0.0158
     22 C           6.8177    3.8151    0.0000 C.3     1  UNL1       -0.0125
     23 C           5.9790    1.5122    0.0000 C.ar    1  UNL1       -0.0548
     24 C           6.8671   -0.0536    0.0000 C.ar    1  UNL1        0.1243
     25 C           5.9670    0.4707    0.0000 C.ar    1  UNL1       -0.0195
     26 C           6.0010   -1.5536    0.0000 C.3     1  UNL1        0.2312
     27 C           6.0010   -2.5536    0.0000 C.3     1  UNL1        0.1455
     28 C           5.1350   -3.0536    0.0000 C.3     1  UNL1        0.1157
     29 C           4.2690   -2.5536    0.0000 C.3     1  UNL1        0.1202
     30 C           4.2690   -1.5536    0.0000 C.3     1  UNL1        0.1869
     31 C           3.4030   -1.0536    0.0000 C.2     1  UNL1        0.3367
     32 H           8.6302    3.8589    0.0000 H       1  UNL1        0.0324
     33 H           7.9136    4.3487    0.0000 H       1  UNL1        0.0469
     34 H           7.7504    1.5938    0.0000 H       1  UNL1        0.0286
     35 H           8.3389    2.6241    0.0000 H       1  UNL1        0.0286
     36 H           9.1085    1.0026    0.0000 H       1  UNL1        0.0274
     37 H           9.9067    0.9903    0.0000 H       1  UNL1        0.0274
     38 H           9.9184    4.0176    0.0000 H       1  UNL1        0.0269
     39 H           9.1201    4.0114    0.0000 H       1  UNL1        0.0269
     40 H           6.6850    3.5990    0.0000 H       1  UNL1        0.0328
     41 H           6.2838    2.9102    0.0000 H       1  UNL1        0.0328
     42 H           6.8656    2.4790    0.0000 H       1  UNL1        0.0427
     43 H           7.2777    1.7589    0.0000 H       1  UNL1        0.0427
     44 H          10.6297    1.3966    0.0000 H       1  UNL1        0.0266
     45 H          11.0342    2.0849    0.0000 H       1  UNL1        0.0266
     46 H          11.0374    2.9143    0.0000 H       1  UNL1        0.0265
     47 H          10.6383    3.6056    0.0000 H       1  UNL1        0.0265
     48 H           8.3064    0.1648    0.0000 H       1  UNL1        0.0657
     49 H           6.5287    4.3636    0.0000 H       1  UNL1        0.0391
     50 H           7.2344    4.2742    0.0000 H       1  UNL1        0.0391
     51 H           6.2034    3.7312    0.0000 H       1  UNL1        0.0391
     52 H           5.4470    1.8305    0.0000 H       1  UNL1        0.0622
     53 H           5.4277    0.1648    0.0000 H       1  UNL1        0.0654
     54 H           6.0010   -0.9336    0.0000 H       1  UNL1        0.1084
     55 H           6.0010   -3.1736    0.0000 H       1  UNL1        0.0683
     56 H           4.5981   -3.3636    0.0000 H       1  UNL1        0.0648
     57 H           3.7320   -2.2436    0.0000 H       1  UNL1        0.0652
     58 H           4.2690   -0.9336    0.0000 H       1  UNL1        0.0742
     59 H           7.4040   -2.7436    0.0000 H       1  UNL1        0.2102
     60 H           5.6720   -4.3636    0.0000 H       1  UNL1        0.2100
     61 H           3.4030   -3.6736    0.0000 H       1  UNL1        0.2100
     62 H           2.0000   -1.2436    0.0000 H       1  UNL1        0.2951
@<TRIPOS>BOND
     1     1    24    1
     2    26     1    1
     3     2    26    1
     4     2    30    1
     5    27     3    1
     6     3    59    1
     7    28     4    1
     8     4    60    1
     9    29     5    1
    10     5    61    1
    11     6    31    1
    12     6    62    1
    13     7    31    2
    14     8    11    1
    15     8    17    1
    16     8    22    1
    17     9    10    1
    18     9    12    1
    19     9    13    1
    20     9    15    1
    21    10    11    1
    22    10    14    1
    23    10    32    1
    24    11    16    1
    25    11    33    1
    26    12    17    1
    27    12    34    1
    28    12    35    1
    29    13    18    1
    30    13    36    1
    31    13    37    1
    32    14    19    1
    33    14    38    1
    34    14    39    1
    35    15    20   ar
    36    15    21   ar
    37    16    20    1
    38    16    40    1
    39    16    41    1
    40    17    42    1
    41    17    43    1
    42    18    19    1
    43    18    44    1
    44    18    45    1
    45    19    46    1
    46    19    47    1
    47    20    23   ar
    48    21    24   ar
    49    21    48    1
    50    22    49    1
    51    22    50    1
    52    22    51    1
    53    23    25   ar
    54    23    52    1
    55    24    25   ar
    56    25    53    1
    57    26    27    1
    58    26    54    1
    59    27    28    1
    60    27    55    1
    61    28    29    1
    62    28    56    1
    63    29    30    1
    64    29    57    1
    65    30    31    1
    66    30    58    1
