@<TRIPOS>MOLECULE
10070040
 62 64 0 0 0
SMALL
GASTEIGER

@<TRIPOS>ATOM
      1 O           2.2533    1.2714   -2.0726 O.3     1  UNL1       -0.4664
      2 O           0.8001    2.7102   -0.9982 O.2     1  UNL1       -0.2484
      3 O           2.9524    2.4405    1.2046 O.2     1  UNL1       -0.2752
      4 N          -1.6407   -0.2643   -0.0466 N.3     1  UNL1       -0.3016
      5 N           2.5637    0.2879    0.2965 N.am    1  UNL1       -0.2544
      6 C           1.1976    0.4930   -0.1278 C.3     1  UNL1        0.1433
      7 C           0.2754    0.9120    1.0409 C.3     1  UNL1        0.0012
      8 C           0.6569   -0.7441   -0.8561 C.3     1  UNL1       -0.0075
      9 C          -1.1901    0.9964    0.5608 C.3     1  UNL1        0.0040
     10 C          -0.8251   -0.6033   -1.2198 C.3     1  UNL1        0.0014
     11 C           0.3841   -0.0309    2.2515 C.3     1  UNL1       -0.0588
     12 C           1.3731    1.6336   -1.0965 C.2     1  UNL1        0.3315
     13 C          -3.0541   -0.1796   -0.4141 C.3     1  UNL1        0.0029
     14 C           3.1799   -1.0142    0.0570 C.ar    1  UNL1        0.0375
     15 C           3.3375    1.2992    0.9383 C.2     1  UNL1        0.2205
     16 C          -3.9506   -0.3686    0.8101 C.3     1  UNL1       -0.0149
     17 C           4.7741    0.9024    1.2664 C.3     1  UNL1        0.0217
     18 C           3.0821   -2.0193    1.0193 C.ar    1  UNL1       -0.0402
     19 C           3.8655   -1.2532   -1.1339 C.ar    1  UNL1       -0.0402
     20 C          -5.4115   -0.3058    0.4411 C.ar    1  UNL1       -0.0462
     21 C           2.5135    2.2677   -3.0665 C.3     1  UNL1        0.0817
     22 C           5.5479    2.0118    1.9624 C.3     1  UNL1       -0.0570
     23 C           3.6703   -3.2634    0.7907 C.ar    1  UNL1       -0.0600
     24 C           4.4534   -2.4973   -1.3626 C.ar    1  UNL1       -0.0600
     25 C          -6.0829    0.9167    0.4570 C.ar    1  UNL1       -0.0585
     26 C          -6.0913   -1.4702    0.0833 C.ar    1  UNL1       -0.0585
     27 C           4.3558   -3.5023   -0.4002 C.ar    1  UNL1       -0.0616
     28 C          -7.4341    0.9749    0.1155 C.ar    1  UNL1       -0.0615
     29 C          -7.4424   -1.4119   -0.2583 C.ar    1  UNL1       -0.0615
     30 C          -8.1138   -0.1893   -0.2421 C.ar    1  UNL1       -0.0617
     31 H           0.5404    1.9122    1.4063 H       1  UNL1        0.0337
     32 H           1.1941   -0.9606   -1.7875 H       1  UNL1        0.0304
     33 H           0.7284   -1.6428   -0.2316 H       1  UNL1        0.0304
     34 H          -1.8056    1.2482    1.4317 H       1  UNL1        0.0430
     35 H          -1.3172    1.8262   -0.1447 H       1  UNL1        0.0430
     36 H          -1.1583   -1.5604   -1.6404 H       1  UNL1        0.0427
     37 H          -0.9440    0.1523   -2.0077 H       1  UNL1        0.0427
     38 H          -0.3368    0.2583    3.0245 H       1  UNL1        0.0234
     39 H           1.3744    0.0276    2.7124 H       1  UNL1        0.0234
     40 H           0.1808   -1.0731    1.9890 H       1  UNL1        0.0234
     41 H          -3.2804    0.7614   -0.9335 H       1  UNL1        0.0430
     42 H          -3.3005   -0.9820   -1.1235 H       1  UNL1        0.0430
     43 H          -3.7384   -1.3337    1.2893 H       1  UNL1        0.0326
     44 H          -3.7578    0.3903    1.5770 H       1  UNL1        0.0326
     45 H           4.7695    0.0311    1.9284 H       1  UNL1        0.0356
     46 H           5.3006    0.6514    0.3404 H       1  UNL1        0.0356
     47 H           2.5638   -1.8507    1.9573 H       1  UNL1        0.0636
     48 H           3.9738   -0.4827   -1.8897 H       1  UNL1        0.0636
     49 H           2.9548    3.1560   -2.6045 H       1  UNL1        0.0661
     50 H           3.2272    1.8536   -3.7836 H       1  UNL1        0.0661
     51 H           1.5911    2.5239   -3.5961 H       1  UNL1        0.0661
     52 H           5.0679    2.2943    2.9053 H       1  UNL1        0.0234
     53 H           5.6062    2.9058    1.3327 H       1  UNL1        0.0234
     54 H           6.5681    1.6832    2.1835 H       1  UNL1        0.0234
     55 H           3.5969   -4.0450    1.5411 H       1  UNL1        0.0618
     56 H           4.9915   -2.6820   -2.2877 H       1  UNL1        0.0618
     57 H          -5.5635    1.8310    0.7317 H       1  UNL1        0.0620
     58 H          -5.5786   -2.4283    0.0651 H       1  UNL1        0.0620
     59 H           4.8151   -4.4703   -0.5776 H       1  UNL1        0.0618
     60 H          -7.9568    1.9269    0.1274 H       1  UNL1        0.0618
     61 H          -7.9717   -2.3184   -0.5374 H       1  UNL1        0.0618
     62 H          -9.1657   -0.1439   -0.5084 H       1  UNL1        0.0618
@<TRIPOS>BOND
     1     1    12    1
     2     1    21    1
     3     2    12    2
     4     3    15    2
     5     4     9    1
     6     4    10    1
     7     4    13    1
     8     5     6    1
     9     5    14    1
    10     5    15   am
    11     6     7    1
    12     6     8    1
    13     6    12    1
    14     7     9    1
    15     7    11    1
    16     7    31    1
    17     8    10    1
    18     8    32    1
    19     8    33    1
    20     9    34    1
    21     9    35    1
    22    10    36    1
    23    10    37    1
    24    11    38    1
    25    11    39    1
    26    11    40    1
    27    13    16    1
    28    13    41    1
    29    13    42    1
    30    14    18   ar
    31    14    19   ar
    32    15    17    1
    33    16    20    1
    34    16    43    1
    35    16    44    1
    36    17    22    1
    37    17    45    1
    38    17    46    1
    39    18    23   ar
    40    18    47    1
    41    19    24   ar
    42    19    48    1
    43    20    25   ar
    44    20    26   ar
    45    21    49    1
    46    21    50    1
    47    21    51    1
    48    22    52    1
    49    22    53    1
    50    22    54    1
    51    23    27   ar
    52    23    55    1
    53    24    27   ar
    54    24    56    1
    55    25    28   ar
    56    25    57    1
    57    26    29   ar
    58    26    58    1
    59    27    59    1
    60    28    30   ar
    61    28    60    1
    62    29    30   ar
    63    29    61    1
    64    30    62    1
@<TRIPOS>MOLECULE
65499
 62 64 0 0 0
SMALL
GASTEIGER

@<TRIPOS>ATOM
      1 O          -2.1278    1.1796   -2.1233 O.3     1  UNL1       -0.4664
      2 O          -1.0089    2.8363   -0.9657 O.2     1  UNL1       -0.2484
      3 O          -3.3803    2.3749    0.9861 O.2     1  UNL1       -0.2752
      4 N           1.6381    0.2450    0.4320 N.3     1  UNL1       -0.3016
      5 N          -2.6110    0.2571    0.2519 N.am    1  UNL1       -0.2544
      6 C          -1.2398    0.6239   -0.0237 C.3     1  UNL1        0.1433
      7 C          -0.5293    1.2054    1.2203 C.3     1  UNL1        0.0012
      8 C          -0.4629   -0.5592   -0.6166 C.3     1  UNL1       -0.0075
      9 C           0.9632    1.4591    0.9137 C.3     1  UNL1        0.0040
     10 C           1.0233   -0.2401   -0.8102 C.3     1  UNL1        0.0014
     11 C          -0.6717    0.3072    2.4608 C.3     1  UNL1       -0.0588
     12 C          -1.4288    1.6918   -1.0706 C.2     1  UNL1        0.3315
     13 C           3.0649    0.4975    0.2312 C.3     1  UNL1        0.0029
     14 C          -3.0230   -1.1248    0.0175 C.ar    1  UNL1        0.0375
     15 C          -3.5802    1.1822    0.7422 C.2     1  UNL1        0.2205
     16 C           3.8710   -0.7972    0.3414 C.3     1  UNL1       -0.0149
     17 C          -4.9591    0.5874    1.0142 C.3     1  UNL1        0.0217
     18 C          -3.5235   -1.5013   -1.2290 C.ar    1  UNL1       -0.0402
     19 C          -2.9155   -2.0679    1.0397 C.ar    1  UNL1       -0.0402
     20 C           5.3469   -0.5474    0.1584 C.ar    1  UNL1       -0.0462
     21 C          -2.3804    2.0924   -3.1961 C.3     1  UNL1        0.0817
     22 C          -5.9566    1.6184    1.5202 C.3     1  UNL1       -0.0570
     23 C          -3.9166   -2.8208   -1.4532 C.ar    1  UNL1       -0.0600
     24 C          -3.3085   -3.3873    0.8154 C.ar    1  UNL1       -0.0600
     25 C           5.9115   -0.6061   -1.1159 C.ar    1  UNL1       -0.0585
     26 C           6.1476   -0.2572    1.2631 C.ar    1  UNL1       -0.0585
     27 C          -3.8090   -3.7637   -0.4310 C.ar    1  UNL1       -0.0616
     28 C           7.2765   -0.3749   -1.2854 C.ar    1  UNL1       -0.0615
     29 C           7.5127   -0.0257    1.0935 C.ar    1  UNL1       -0.0615
     30 C           8.0771   -0.0846   -0.1808 C.ar    1  UNL1       -0.0617
     31 H          -0.9588    2.1773    1.4948 H       1  UNL1        0.0337
     32 H          -0.4975   -1.4348    0.0428 H       1  UNL1        0.0304
     33 H          -0.8506   -0.8798   -1.5912 H       1  UNL1        0.0304
     34 H           1.0812    2.2732    0.1887 H       1  UNL1        0.0430
     35 H           1.4440    1.8042    1.8386 H       1  UNL1        0.0430
     36 H           1.1363    0.4973   -1.6161 H       1  UNL1        0.0427
     37 H           1.5135   -1.1589   -1.1508 H       1  UNL1        0.0427
     38 H          -1.7111    0.2565    2.7975 H       1  UNL1        0.0234
     39 H          -0.0941    0.7188    3.2964 H       1  UNL1        0.0234
     40 H          -0.3100   -0.7097    2.2836 H       1  UNL1        0.0234
     41 H           3.2560    1.0090   -0.7218 H       1  UNL1        0.0430
     42 H           3.4370    1.1747    1.0127 H       1  UNL1        0.0430
     43 H           3.7008   -1.2675    1.3191 H       1  UNL1        0.0326
     44 H           3.5481   -1.5355   -0.4022 H       1  UNL1        0.0326
     45 H          -5.3601    0.1591    0.0906 H       1  UNL1        0.0356
     46 H          -4.8714   -0.1987    1.7704 H       1  UNL1        0.0356
     47 H          -3.6357   -0.7828   -2.0340 H       1  UNL1        0.0636
     48 H          -2.5404   -1.7941    2.0201 H       1  UNL1        0.0636
     49 H          -1.4368    2.4426   -3.6251 H       1  UNL1        0.0661
     50 H          -2.9421    1.5609   -3.9688 H       1  UNL1        0.0661
     51 H          -2.9814    2.9350   -2.8416 H       1  UNL1        0.0661
     52 H          -6.0912    2.4257    0.7926 H       1  UNL1        0.0234
     53 H          -5.6177    2.0655    2.4606 H       1  UNL1        0.0234
     54 H          -6.9305    1.1513    1.6962 H       1  UNL1        0.0234
     55 H          -4.3107   -3.1130   -2.4221 H       1  UNL1        0.0618
     56 H          -3.2276   -4.1210    1.6121 H       1  UNL1        0.0618
     57 H           5.2976   -0.8292   -1.9845 H       1  UNL1        0.0620
     58 H           5.7191   -0.2066    2.2605 H       1  UNL1        0.0620
     59 H          -4.1166   -4.7906   -0.6050 H       1  UNL1        0.0618
     60 H           7.7160   -0.4200   -2.2775 H       1  UNL1        0.0618
     61 H           8.1360    0.2008    1.9535 H       1  UNL1        0.0618
     62 H           9.1399    0.0959   -0.3128 H       1  UNL1        0.0618
@<TRIPOS>BOND
     1     1    12    1
     2     1    21    1
     3     2    12    2
     4     3    15    2
     5     4     9    1
     6     4    10    1
     7     4    13    1
     8     5     6    1
     9     5    14    1
    10     5    15   am
    11     6     7    1
    12     6     8    1
    13     6    12    1
    14     7     9    1
    15     7    11    1
    16     7    31    1
    17     8    10    1
    18     8    32    1
    19     8    33    1
    20     9    34    1
    21     9    35    1
    22    10    36    1
    23    10    37    1
    24    11    38    1
    25    11    39    1
    26    11    40    1
    27    13    16    1
    28    13    41    1
    29    13    42    1
    30    14    18   ar
    31    14    19   ar
    32    15    17    1
    33    16    20    1
    34    16    43    1
    35    16    44    1
    36    17    22    1
    37    17    45    1
    38    17    46    1
    39    18    23   ar
    40    18    47    1
    41    19    24   ar
    42    19    48    1
    43    20    25   ar
    44    20    26   ar
    45    21    49    1
    46    21    50    1
    47    21    51    1
    48    22    52    1
    49    22    53    1
    50    22    54    1
    51    23    27   ar
    52    23    55    1
    53    24    27   ar
    54    24    56    1
    55    25    28   ar
    56    25    57    1
    57    26    29   ar
    58    26    58    1
    59    27    59    1
    60    28    30   ar
    61    28    60    1
    62    29    30   ar
    63    29    61    1
    64    30    62    1
@<TRIPOS>MOLECULE
123642
 62 64 0 0 0
SMALL
GASTEIGER

@<TRIPOS>ATOM
      1 O          -2.7557   -2.4629    1.5956 O.3     1  UNL1       -0.4664
      2 O          -3.7602   -1.8180   -0.3823 O.2     1  UNL1       -0.2484
      3 O          -1.4034   -0.4263   -2.7360 O.2     1  UNL1       -0.2752
      4 N           1.3313   -0.6700    0.5773 N.3     1  UNL1       -0.3016
      5 N          -2.0618    0.1331   -0.5338 N.am    1  UNL1       -0.2544
      6 C          -1.5603   -1.0163    0.1939 C.3     1  UNL1        0.1433
      7 C          -0.5284   -1.7950   -0.6547 C.3     1  UNL1        0.0012
      8 C          -0.9580   -0.5834    1.5367 C.3     1  UNL1       -0.0075
      9 C           0.7869   -0.9898   -0.7512 C.3     1  UNL1        0.0040
     10 C           0.3836    0.1363    1.3580 C.3     1  UNL1        0.0014
     11 C          -0.2446   -3.2076   -0.1153 C.3     1  UNL1       -0.0588
     12 C          -2.8253   -1.7985    0.4070 C.2     1  UNL1        0.3315
     13 C           2.6124    0.0249    0.4529 C.3     1  UNL1        0.0029
     14 C          -2.4973    1.3016    0.2230 C.ar    1  UNL1        0.0375
     15 C          -2.1480    0.1713   -1.9548 C.2     1  UNL1        0.2205
     16 C           3.7415   -0.9591    0.1445 C.3     1  UNL1       -0.0149
     17 C          -3.2432    1.0752   -2.5139 C.3     1  UNL1        0.0217
     18 C          -1.8764    2.5344    0.0209 C.ar    1  UNL1       -0.0402
     19 C          -3.5349    1.1870    1.1483 C.ar    1  UNL1       -0.0402
     20 C           5.0721   -0.2581    0.0359 C.ar    1  UNL1       -0.0462
     21 C          -3.9024   -3.2525    1.9268 C.3     1  UNL1        0.0817
     22 C          -3.7989    0.5772   -3.8395 C.3     1  UNL1       -0.0570
     23 C          -2.2929    3.6521    0.7441 C.ar    1  UNL1       -0.0600
     24 C          -3.9514    2.3047    1.8713 C.ar    1  UNL1       -0.0600
     25 C           5.5054    0.2286   -1.1975 C.ar    1  UNL1       -0.0585
     26 C           5.8697   -0.0958    1.1688 C.ar    1  UNL1       -0.0585
     27 C          -3.3303    3.5373    1.6691 C.ar    1  UNL1       -0.0616
     28 C           6.7362    0.8773   -1.2981 C.ar    1  UNL1       -0.0615
     29 C           7.1005    0.5530    1.0681 C.ar    1  UNL1       -0.0615
     30 C           7.5337    1.0395   -0.1654 C.ar    1  UNL1       -0.0617
     31 H          -0.8981   -2.0513   -1.6461 H       1  UNL1        0.0337
     32 H          -1.6116    0.0008    2.1886 H       1  UNL1        0.0304
     33 H          -0.7327   -1.4717    2.1448 H       1  UNL1        0.0304
     34 H           1.4983   -1.5909   -1.3278 H       1  UNL1        0.0430
     35 H           0.6331   -0.0667   -1.3228 H       1  UNL1        0.0430
     36 H           0.7966    0.3096    2.3601 H       1  UNL1        0.0427
     37 H           0.2529    1.1211    0.9012 H       1  UNL1        0.0427
     38 H           0.5190   -3.7043   -0.7251 H       1  UNL1        0.0234
     39 H          -1.1401   -3.8365   -0.1544 H       1  UNL1        0.0234
     40 H           0.1176   -3.1979    0.9169 H       1  UNL1        0.0234
     41 H           2.5656    0.8264   -0.2966 H       1  UNL1        0.0430
     42 H           2.8605    0.5161    1.4041 H       1  UNL1        0.0430
     43 H           3.7987   -1.7272    0.9275 H       1  UNL1        0.0326
     44 H           3.5636   -1.5033   -0.7901 H       1  UNL1        0.0326
     45 H          -4.0807    1.1371   -1.8121 H       1  UNL1        0.0356
     46 H          -2.8277    2.0790   -2.6505 H       1  UNL1        0.0356
     47 H          -1.0640    2.6379   -0.6938 H       1  UNL1        0.0636
     48 H          -4.0572    0.2524    1.3193 H       1  UNL1        0.0636
     49 H          -4.0535   -4.0335    1.1755 H       1  UNL1        0.0661
     50 H          -3.7203   -3.7266    2.8948 H       1  UNL1        0.0661
     51 H          -4.7889   -2.6164    2.0080 H       1  UNL1        0.0661
     52 H          -4.1912   -0.4401   -3.7400 H       1  UNL1        0.0234
     53 H          -3.0229    0.5631   -4.6118 H       1  UNL1        0.0234
     54 H          -4.6087    1.2283   -4.1828 H       1  UNL1        0.0234
     55 H          -1.8088    4.6115    0.5874 H       1  UNL1        0.0618
     56 H          -4.7623    2.2169    2.5885 H       1  UNL1        0.0618
     57 H           4.8919    0.1103   -2.0867 H       1  UNL1        0.0620
     58 H           5.5423   -0.4688    2.1356 H       1  UNL1        0.0620
     59 H          -3.6552    4.4078    2.2314 H       1  UNL1        0.0618
     60 H           7.0733    1.2567   -2.2583 H       1  UNL1        0.0618
     61 H           7.7213    0.6800    1.9501 H       1  UNL1        0.0618
     62 H           8.4917    1.5449   -0.2436 H       1  UNL1        0.0618
@<TRIPOS>BOND
     1     1    12    1
     2     1    21    1
     3     2    12    2
     4     3    15    2
     5     4     9    1
     6     4    10    1
     7     4    13    1
     8     5     6    1
     9     5    14    1
    10     5    15   am
    11     6     7    1
    12     6     8    1
    13     6    12    1
    14     7     9    1
    15     7    11    1
    16     7    31    1
    17     8    10    1
    18     8    32    1
    19     8    33    1
    20     9    34    1
    21     9    35    1
    22    10    36    1
    23    10    37    1
    24    11    38    1
    25    11    39    1
    26    11    40    1
    27    13    16    1
    28    13    41    1
    29    13    42    1
    30    14    18   ar
    31    14    19   ar
    32    15    17    1
    33    16    20    1
    34    16    43    1
    35    16    44    1
    36    17    22    1
    37    17    45    1
    38    17    46    1
    39    18    23   ar
    40    18    47    1
    41    19    24   ar
    42    19    48    1
    43    20    25   ar
    44    20    26   ar
    45    21    49    1
    46    21    50    1
    47    21    51    1
    48    22    52    1
    49    22    53    1
    50    22    54    1
    51    23    27   ar
    52    23    55    1
    53    24    27   ar
    54    24    56    1
    55    25    28   ar
    56    25    57    1
    57    26    29   ar
    58    26    58    1
    59    27    59    1
    60    28    30   ar
    61    28    60    1
    62    29    30   ar
    63    29    61    1
    64    30    62    1
