@<TRIPOS>MOLECULE
3955
 67 70 0 0 0
SMALL
GASTEIGER

@<TRIPOS>ATOM
      1 CL          9.4863    1.4097    0.3868 Cl      1  UNL1       -0.0835
      2 O           3.8280   -1.9095    0.7297 O.3     1  UNL1       -0.3839
      3 O          -4.4042   -0.4860   -2.0520 O.2     1  UNL1       -0.2743
      4 N           0.9732   -0.2168   -0.6960 N.3     1  UNL1       -0.3021
      5 N          -2.8834    1.1154   -2.6417 N.am    1  UNL1       -0.3066
      6 C           3.7970   -0.5999    0.1428 C.3     1  UNL1        0.0933
      7 C           3.3233   -0.7055   -1.3253 C.3     1  UNL1       -0.0070
      8 C           2.7724    0.2462    0.9311 C.3     1  UNL1       -0.0070
      9 C           1.8498   -1.1110   -1.4588 C.3     1  UNL1        0.0018
     10 C           1.3258   -0.2194    0.7280 C.3     1  UNL1        0.0018
     11 C          -0.4283   -0.5939   -0.8780 C.3     1  UNL1        0.0004
     12 C          -1.3407    0.4149   -0.1620 C.3     1  UNL1       -0.0181
     13 C          -2.8894    0.1390   -0.2345 C.3     1  UNL1        0.0979
     14 C           5.2383   -0.0916    0.2059 C.ar    1  UNL1       -0.0160
     15 C          -3.0626   -1.3098    0.3582 C.ar    1  UNL1       -0.0281
     16 C          -3.7366    1.1434    0.6055 C.ar    1  UNL1       -0.0281
     17 C          -3.4414    0.2222   -1.7208 C.2     1  UNL1        0.2300
     18 C           6.2476   -0.7761   -0.4695 C.ar    1  UNL1       -0.0545
     19 C           5.5401    1.0560    0.9375 C.ar    1  UNL1       -0.0545
     20 C          -3.3002   -1.4047    1.6890 C.ar    1  UNL1       -0.0573
     21 C          -5.0814    0.9354    0.6669 C.ar    1  UNL1       -0.0573
     22 C          -2.9596   -2.3450   -0.5102 C.ar    1  UNL1       -0.0573
     23 C          -3.0758    2.1626    1.2219 C.ar    1  UNL1       -0.0573
     24 C           7.5617   -0.3120   -0.4132 C.ar    1  UNL1       -0.0430
     25 C           6.8543    1.5202    0.9936 C.ar    1  UNL1       -0.0430
     26 C           7.8651    0.8361    0.3184 C.ar    1  UNL1        0.0410
     27 C          -3.4531   -2.6878    2.2142 C.ar    1  UNL1       -0.0615
     28 C          -5.8392    1.8340    1.4178 C.ar    1  UNL1       -0.0615
     29 C          -3.1127   -3.6282    0.0148 C.ar    1  UNL1       -0.0615
     30 C          -3.8335    3.0611    1.9730 C.ar    1  UNL1       -0.0615
     31 C          -2.3049    2.4232   -2.3595 C.3     1  UNL1        0.0029
     32 C          -2.9411    0.7806   -4.0614 C.3     1  UNL1        0.0029
     33 C          -3.3594   -3.7996    1.3770 C.ar    1  UNL1       -0.0617
     34 C          -5.2152    2.8968    2.0708 C.ar    1  UNL1       -0.0617
     35 H           3.4721    0.2584   -1.8313 H       1  UNL1        0.0309
     36 H           3.9130   -1.4502   -1.8736 H       1  UNL1        0.0309
     37 H           2.9911    0.2027    2.0061 H       1  UNL1        0.0309
     38 H           2.8253    1.2980    0.6191 H       1  UNL1        0.0309
     39 H           1.5861   -1.0649   -2.5229 H       1  UNL1        0.0427
     40 H           1.7185   -2.1547   -1.1455 H       1  UNL1        0.0427
     41 H           1.1699   -1.2063    1.1812 H       1  UNL1        0.0427
     42 H           0.7403    0.5008    1.3040 H       1  UNL1        0.0427
     43 H          -0.6725   -0.6001   -1.9462 H       1  UNL1        0.0427
     44 H          -0.5597   -1.6087   -0.4944 H       1  UNL1        0.0427
     45 H          -1.0671    1.4173   -0.4936 H       1  UNL1        0.0294
     46 H          -1.1119    0.3785    0.9084 H       1  UNL1        0.0294
     47 H           2.9559   -2.3235    0.6307 H       1  UNL1        0.2106
     48 H           6.0369   -1.6792   -1.0350 H       1  UNL1        0.0622
     49 H           4.7955    1.6203    1.4874 H       1  UNL1        0.0622
     50 H          -3.3349   -0.5724    2.3807 H       1  UNL1        0.0621
     51 H          -5.5850    0.1129    0.1718 H       1  UNL1        0.0621
     52 H          -2.7377   -2.2473   -1.5659 H       1  UNL1        0.0621
     53 H          -2.0109    2.3439    1.1823 H       1  UNL1        0.0621
     54 H           8.3397   -0.8565   -0.9423 H       1  UNL1        0.0632
     55 H           7.0771    2.4154    1.5688 H       1  UNL1        0.0632
     56 H          -3.6342   -2.8224    3.2766 H       1  UNL1        0.0618
     57 H          -6.9149    1.7053    1.4954 H       1  UNL1        0.0618
     58 H          -3.0317   -4.4945   -0.6352 H       1  UNL1        0.0618
     59 H          -3.3486    3.8894    2.4815 H       1  UNL1        0.0618
     60 H          -2.5286    2.7541   -1.3485 H       1  UNL1        0.0428
     61 H          -2.7391    3.1560   -3.0475 H       1  UNL1        0.0428
     62 H          -1.2251    2.3793   -2.5253 H       1  UNL1        0.0428
     63 H          -1.9481    0.9158   -4.5001 H       1  UNL1        0.0428
     64 H          -3.2544   -0.2563   -4.2122 H       1  UNL1        0.0428
     65 H          -3.6569    1.4467   -4.5518 H       1  UNL1        0.0428
     66 H          -3.4741   -4.7989    1.7866 H       1  UNL1        0.0618
     67 H          -5.8051    3.5963    2.6558 H       1  UNL1        0.0618
@<TRIPOS>BOND
     1     1    26    1
     2     2     6    1
     3     2    47    1
     4     3    17    2
     5     4     9    1
     6     4    10    1
     7     4    11    1
     8     5    17   am
     9     5    31    1
    10     5    32    1
    11     6     7    1
    12     6     8    1
    13     6    14    1
    14     7     9    1
    15     7    35    1
    16     7    36    1
    17     8    10    1
    18     8    37    1
    19     8    38    1
    20     9    39    1
    21     9    40    1
    22    10    41    1
    23    10    42    1
    24    11    12    1
    25    11    43    1
    26    11    44    1
    27    12    13    1
    28    12    45    1
    29    12    46    1
    30    13    15    1
    31    13    16    1
    32    13    17    1
    33    14    18   ar
    34    14    19   ar
    35    15    20   ar
    36    15    22   ar
    37    16    21   ar
    38    16    23   ar
    39    18    24   ar
    40    18    48    1
    41    19    25   ar
    42    19    49    1
    43    20    27   ar
    44    20    50    1
    45    21    28   ar
    46    21    51    1
    47    22    29   ar
    48    22    52    1
    49    23    30   ar
    50    23    53    1
    51    24    26   ar
    52    24    54    1
    53    25    26   ar
    54    25    55    1
    55    27    33   ar
    56    27    56    1
    57    28    34   ar
    58    28    57    1
    59    29    33   ar
    60    29    58    1
    61    30    34   ar
    62    30    59    1
    63    31    60    1
    64    31    61    1
    65    31    62    1
    66    32    63    1
    67    32    64    1
    68    32    65    1
    69    33    66    1
    70    34    67    1
@<TRIPOS>MOLECULE
9805944
 64 67 0 0 0
SMALL
GASTEIGER

@<TRIPOS>ATOM
      1 CL          9.4297   -1.4314    0.4564 Cl      1  UNL1       -0.0835
      2 O           3.8256    1.9940    0.5631 O.3     1  UNL1       -0.3839
      3 O          -3.1226    0.7162   -2.5828 O.2     1  UNL1       -0.2745
      4 N           0.9579    0.2777   -0.8074 N.3     1  UNL1       -0.3021
      5 N          -3.5061   -1.5347   -2.2682 N.am    1  UNL1       -0.3174
      6 C           3.7940    0.6841   -0.0230 C.3     1  UNL1        0.0933
      7 C           3.2723    0.8274   -1.4702 C.3     1  UNL1       -0.0070
      8 C           2.8117   -0.2100    0.7685 C.3     1  UNL1       -0.0070
      9 C           1.7957    1.2339   -1.5390 C.3     1  UNL1        0.0018
     10 C           1.3450    0.2091    0.6054 C.3     1  UNL1        0.0018
     11 C          -0.4557    0.6313   -0.9353 C.3     1  UNL1        0.0004
     12 C          -1.3276   -0.4118   -0.2124 C.3     1  UNL1       -0.0181
     13 C          -2.8878   -0.1604   -0.2912 C.3     1  UNL1        0.0977
     14 C           5.2221    0.1496    0.0982 C.ar    1  UNL1       -0.0160
     15 C          -3.3177    1.2151    0.2949 C.ar    1  UNL1       -0.0281
     16 C          -3.6639   -1.2505    0.5074 C.ar    1  UNL1       -0.0281
     17 C          -3.2041   -0.2510   -1.8241 C.2     1  UNL1        0.2277
     18 C           5.7961   -0.0219    1.3570 C.ar    1  UNL1       -0.0545
     19 C           5.9467   -0.1664   -1.0500 C.ar    1  UNL1       -0.0545
     20 C          -2.5887    1.7171    1.3326 C.ar    1  UNL1       -0.0573
     21 C          -5.0256   -1.2108    0.4692 C.ar    1  UNL1       -0.0573
     22 C          -4.3968    1.8329   -0.2655 C.ar    1  UNL1       -0.0573
     23 C          -2.9306   -2.1723    1.1925 C.ar    1  UNL1       -0.0573
     24 C           7.0979   -0.5105    1.4677 C.ar    1  UNL1       -0.0430
     25 C           7.2485   -0.6552   -0.9391 C.ar    1  UNL1       -0.0430
     26 C           7.8241   -0.8272    0.3197 C.ar    1  UNL1        0.0410
     27 C          -2.9742    2.9502    1.8584 C.ar    1  UNL1       -0.0615
     28 C          -5.7203   -2.1863    1.1844 C.ar    1  UNL1       -0.0615
     29 C          -4.7824    3.0661    0.2602 C.ar    1  UNL1       -0.0615
     30 C          -3.6252   -3.1479    1.9076 C.ar    1  UNL1       -0.0615
     31 C          -4.0710    3.6246    1.3222 C.ar    1  UNL1       -0.0617
     32 C          -5.0201   -3.1547    1.9036 C.ar    1  UNL1       -0.0617
     33 C          -3.7471   -1.8264   -3.6612 C.3     1  UNL1        0.0001
     34 H           3.8532    1.5853   -2.0115 H       1  UNL1        0.0309
     35 H           3.3747   -0.1237   -2.0098 H       1  UNL1        0.0309
     36 H           2.9215   -1.2541    0.4439 H       1  UNL1        0.0309
     37 H           3.0382   -0.1821    1.8415 H       1  UNL1        0.0309
     38 H           1.5016    1.2487   -2.5960 H       1  UNL1        0.0427
     39 H           1.6624    2.2541   -1.1578 H       1  UNL1        0.0427
     40 H           1.1609    1.1618    1.1178 H       1  UNL1        0.0427
     41 H           0.8012   -0.5668    1.1489 H       1  UNL1        0.0427
     42 H          -0.7068    0.6373   -2.0006 H       1  UNL1        0.0427
     43 H          -0.6379    1.6411   -0.5526 H       1  UNL1        0.0427
     44 H          -1.0555   -0.4435    0.8416 H       1  UNL1        0.0294
     45 H          -1.0904   -1.3935   -0.6486 H       1  UNL1        0.0294
     46 H           2.9211    2.3419    0.6138 H       1  UNL1        0.2106
     47 H           5.2543    0.2298    2.2641 H       1  UNL1        0.0622
     48 H           5.5511   -0.0439   -2.0519 H       1  UNL1        0.0622
     49 H          -1.7505    1.2157    1.7974 H       1  UNL1        0.0621
     50 H          -5.6019   -0.4988   -0.1057 H       1  UNL1        0.0621
     51 H          -4.9838    1.4280   -1.0810 H       1  UNL1        0.0621
     52 H          -1.8536   -2.2425    1.2364 H       1  UNL1        0.0621
     53 H           7.5347   -0.6370    2.4550 H       1  UNL1        0.0632
     54 H           7.8037   -0.8965   -1.8420 H       1  UNL1        0.0632
     55 H          -3.4541   -2.3267   -1.6372 H       1  UNL1        0.1484
     56 H          -2.4248    3.3825    2.6897 H       1  UNL1        0.0618
     57 H          -6.8064   -2.1973    1.1745 H       1  UNL1        0.0618
     58 H          -5.6385    3.5902   -0.1546 H       1  UNL1        0.0618
     59 H          -3.0813   -3.9047    2.4655 H       1  UNL1        0.0618
     60 H          -4.3726    4.5837    1.7330 H       1  UNL1        0.0618
     61 H          -5.5609   -3.9159    2.4583 H       1  UNL1        0.0618
     62 H          -4.2784   -2.7782   -3.7316 H       1  UNL1        0.0426
     63 H          -4.3424   -1.0298   -4.1150 H       1  UNL1        0.0426
     64 H          -2.7839   -1.8991   -4.1724 H       1  UNL1        0.0426
@<TRIPOS>BOND
     1     1    26    1
     2     2     6    1
     3     2    46    1
     4     3    17    2
     5     4     9    1
     6     4    10    1
     7     4    11    1
     8     5    17   am
     9     5    33    1
    10     5    55    1
    11     6     7    1
    12     6     8    1
    13     6    14    1
    14     7     9    1
    15     7    34    1
    16     7    35    1
    17     8    10    1
    18     8    36    1
    19     8    37    1
    20     9    38    1
    21     9    39    1
    22    10    40    1
    23    10    41    1
    24    11    12    1
    25    11    42    1
    26    11    43    1
    27    12    13    1
    28    12    44    1
    29    12    45    1
    30    13    15    1
    31    13    16    1
    32    13    17    1
    33    14    18   ar
    34    14    19   ar
    35    15    20   ar
    36    15    22   ar
    37    16    21   ar
    38    16    23   ar
    39    18    24   ar
    40    18    47    1
    41    19    25   ar
    42    19    48    1
    43    20    27   ar
    44    20    49    1
    45    21    28   ar
    46    21    50    1
    47    22    29   ar
    48    22    51    1
    49    23    30   ar
    50    23    52    1
    51    24    26   ar
    52    24    53    1
    53    25    26   ar
    54    25    54    1
    55    27    31   ar
    56    27    56    1
    57    28    32   ar
    58    28    57    1
    59    29    31   ar
    60    29    58    1
    61    30    32   ar
    62    30    59    1
    63    31    60    1
    64    32    61    1
    65    33    62    1
    66    33    63    1
    67    33    64    1
@<TRIPOS>MOLECULE
71421
 68 71 0 0 0
SMALL
GASTEIGER

@<TRIPOS>ATOM
      1 CL         -9.6791   -0.4204   -1.1764 Cl      1  UNL1       -0.0835
      2 O          -1.0826    0.9824   -1.3147 O.co2   1  UNL1       -0.7753
      3 O          -3.9214   -0.3794    1.9800 O.3     1  UNL1       -0.3836
      4 O           2.6781    0.6833    2.4342 O.2     1  UNL1       -0.2743
      5 N          -1.0417    0.6760    0.0221 N.3     1  UNL1        0.2173
      6 N           3.1169   -1.5556    2.2011 N.am    1  UNL1       -0.3066
      7 C          -3.9183   -0.0132    0.5920 C.3     1  UNL1        0.1005
      8 C          -1.4862   -0.7521    0.2492 C.3     1  UNL1       -0.0297
      9 C          -1.9385    1.6118    0.8009 C.3     1  UNL1       -0.0297
     10 C          -2.9471   -0.9638   -0.1440 C.3     1  UNL1        0.0206
     11 C          -3.4141    1.4415    0.4421 C.3     1  UNL1        0.0206
     12 C           0.3774    0.8373    0.4940 C.3     1  UNL1       -0.0311
     13 C           1.2896   -0.1497   -0.2386 C.3     1  UNL1        0.0095
     14 C           2.8236   -0.0322    0.1164 C.3     1  UNL1        0.1016
     15 C          -5.3784   -0.1153    0.1429 C.ar    1  UNL1       -0.0157
     16 C           3.6985   -1.0325   -0.6880 C.ar    1  UNL1       -0.0279
     17 C           3.3953    1.3874   -0.2395 C.ar    1  UNL1       -0.0279
     18 C           2.8949   -0.2741    1.6751 C.2     1  UNL1        0.2302
     19 C          -5.7251   -0.9626   -0.9082 C.ar    1  UNL1       -0.0545
     20 C          -6.3585    0.6383    0.7867 C.ar    1  UNL1       -0.0545
     21 C           5.0403   -1.0472   -0.4378 C.ar    1  UNL1       -0.0573
     22 C           2.8524    2.0217   -1.3090 C.ar    1  UNL1       -0.0573
     23 C           3.0727   -1.8361   -1.5968 C.ar    1  UNL1       -0.0573
     24 C           4.3880    1.8692    0.5499 C.ar    1  UNL1       -0.0573
     25 C          -7.0555   -1.0567   -1.3167 C.ar    1  UNL1       -0.0430
     26 C          -7.6890    0.5442    0.3782 C.ar    1  UNL1       -0.0430
     27 C          -8.0374   -0.3034   -0.6734 C.ar    1  UNL1        0.0410
     28 C           5.8260   -1.9451   -1.1605 C.ar    1  UNL1       -0.0615
     29 C           3.3603    3.2818   -1.6252 C.ar    1  UNL1       -0.0615
     30 C           3.8584   -2.7341   -2.3193 C.ar    1  UNL1       -0.0615
     31 C           4.8958    3.1293    0.2338 C.ar    1  UNL1       -0.0615
     32 C           2.7611   -2.7858    1.4959 C.3     1  UNL1        0.0029
     33 C           3.7271   -1.7923    3.5084 C.3     1  UNL1        0.0029
     34 C           5.2350   -2.7885   -2.1012 C.ar    1  UNL1       -0.0617
     35 C           4.3819    3.8356   -0.8539 C.ar    1  UNL1       -0.0617
     36 H          -1.3074   -0.9886    1.3036 H       1  UNL1        0.0814
     37 H          -0.8957   -1.4038   -0.3979 H       1  UNL1        0.0814
     38 H          -1.5983    2.6287    0.5750 H       1  UNL1        0.0814
     39 H          -1.7680    1.4010    1.8628 H       1  UNL1        0.0814
     40 H          -3.0195   -0.8118   -1.2284 H       1  UNL1        0.0348
     41 H          -3.2027   -2.0106    0.0645 H       1  UNL1        0.0348
     42 H          -3.9831    2.1187    1.0904 H       1  UNL1        0.0348
     43 H          -3.5726    1.7789   -0.5907 H       1  UNL1        0.0348
     44 H           0.3540    0.6528    1.5722 H       1  UNL1        0.0814
     45 H           0.6393    1.8829    0.3077 H       1  UNL1        0.0814
     46 H           0.9739   -1.1537    0.0375 H       1  UNL1        0.0333
     47 H           1.1151   -0.0659   -1.3159 H       1  UNL1        0.0333
     48 H          -4.2424   -1.2950    2.0510 H       1  UNL1        0.2106
     49 H          -5.0056   -1.5761   -1.4380 H       1  UNL1        0.0622
     50 H          -6.1104    1.2973    1.6139 H       1  UNL1        0.0622
     51 H           5.5312   -0.4446    0.3136 H       1  UNL1        0.0621
     52 H           2.0834    1.6160   -1.9514 H       1  UNL1        0.0621
     53 H           2.0132   -1.8519   -1.8100 H       1  UNL1        0.0621
     54 H           4.8237    1.3501    1.3946 H       1  UNL1        0.0621
     55 H          -7.3135   -1.7224   -2.1364 H       1  UNL1        0.0632
     56 H          -8.4440    1.1354    0.8901 H       1  UNL1        0.0632
     57 H           6.8963   -1.9956   -0.9832 H       1  UNL1        0.0618
     58 H           2.9657    3.8291   -2.4765 H       1  UNL1        0.0618
     59 H           3.3989   -3.3932   -3.0501 H       1  UNL1        0.0618
     60 H           5.6937    3.5597    0.8321 H       1  UNL1        0.0618
     61 H           3.6717   -3.2557    1.1147 H       1  UNL1        0.0428
     62 H           2.3009   -3.4736    2.2144 H       1  UNL1        0.0428
     63 H           2.0376   -2.6447    0.7033 H       1  UNL1        0.0428
     64 H           2.9929   -2.2696    4.1634 H       1  UNL1        0.0428
     65 H           4.5984   -2.4415    3.3839 H       1  UNL1        0.0428
     66 H           4.0461   -0.8462    3.9539 H       1  UNL1        0.0428
     67 H           5.8462   -3.4899   -2.6615 H       1  UNL1        0.0618
     68 H           4.7790    4.8156   -1.1015 H       1  UNL1        0.0618
@<TRIPOS>UNITY_ATOM_ATTR
2 1
charge -1
5 1
charge 1
@<TRIPOS>BOND
     1     1    27    1
     2     2     5    1
     3     3     7    1
     4     3    48    1
     5     4    18    2
     6     5     8    1
     7     5     9    1
     8     5    12    1
     9     6    18   am
    10     6    32    1
    11     6    33    1
    12     7    10    1
    13     7    11    1
    14     7    15    1
    15     8    10    1
    16     8    36    1
    17     8    37    1
    18     9    11    1
    19     9    38    1
    20     9    39    1
    21    10    40    1
    22    10    41    1
    23    11    42    1
    24    11    43    1
    25    12    13    1
    26    12    44    1
    27    12    45    1
    28    13    14    1
    29    13    46    1
    30    13    47    1
    31    14    16    1
    32    14    17    1
    33    14    18    1
    34    15    19   ar
    35    15    20   ar
    36    16    21   ar
    37    16    23   ar
    38    17    22   ar
    39    17    24   ar
    40    19    25   ar
    41    19    49    1
    42    20    26   ar
    43    20    50    1
    44    21    28   ar
    45    21    51    1
    46    22    29   ar
    47    22    52    1
    48    23    30   ar
    49    23    53    1
    50    24    31   ar
    51    24    54    1
    52    25    27   ar
    53    25    55    1
    54    26    27   ar
    55    26    56    1
    56    28    34   ar
    57    28    57    1
    58    29    35   ar
    59    29    58    1
    60    30    34   ar
    61    30    59    1
    62    31    35   ar
    63    31    60    1
    64    32    61    1
    65    32    62    1
    66    32    63    1
    67    33    64    1
    68    33    65    1
    69    33    66    1
    70    34    67    1
    71    35    68    1
@<TRIPOS>MOLECULE
3954
 68 71 0 0 0
SMALL
GASTEIGER

@<TRIPOS>ATOM
      1 CL         -7.8609   -2.5209    0.1847 Cl      1  UNL1       -0.0835
      2 O          -3.9593    2.6790   -1.0468 O.3     1  UNL1       -0.3836
      3 O           2.7438    0.1495    2.5844 O.2     1  UNL1       -0.2743
      4 N          -0.5810    2.3885   -0.1812 N.4     1  UNL1        0.2354
      5 N           3.7202    1.8790    1.4381 N.am    1  UNL1       -0.3066
      6 C          -3.4093    1.5178   -0.4008 C.3     1  UNL1        0.1005
      7 C          -1.1381    1.9372   -1.5056 C.3     1  UNL1       -0.0289
      8 C          -1.6368    2.9864    0.7129 C.3     1  UNL1       -0.0289
      9 C          -2.2956    0.9602   -1.3137 C.3     1  UNL1        0.0207
     10 C          -2.7841    2.0027    0.9266 C.3     1  UNL1        0.0207
     11 C           0.2775    1.3552    0.4972 C.3     1  UNL1       -0.0303
     12 C           1.4472    0.9989   -0.4284 C.3     1  UNL1        0.0095
     13 C           2.4871   -0.0280    0.1746 C.3     1  UNL1        0.1016
     14 C          -4.5359    0.4938   -0.2529 C.ar    1  UNL1       -0.0157
     15 C           3.6259   -0.3777   -0.8230 C.ar    1  UNL1       -0.0279
     16 C           1.8117   -1.4043    0.5198 C.ar    1  UNL1       -0.0279
     17 C           3.0198    0.6647    1.4898 C.2     1  UNL1        0.2302
     18 C          -4.8691    0.0030    1.0090 C.ar    1  UNL1       -0.0545
     19 C          -5.2290    0.0536   -1.3795 C.ar    1  UNL1       -0.0545
     20 C           3.3265   -0.3770   -2.1546 C.ar    1  UNL1       -0.0573
     21 C           2.3113   -2.0889    1.5792 C.ar    1  UNL1       -0.0573
     22 C           4.8564   -0.6648   -0.3071 C.ar    1  UNL1       -0.0573
     23 C           0.7815   -1.8016   -0.2684 C.ar    1  UNL1       -0.0573
     24 C          -5.8972   -0.9299    1.1442 C.ar    1  UNL1       -0.0430
     25 C          -6.2573   -0.8792   -1.2442 C.ar    1  UNL1       -0.0430
     26 C          -6.5914   -1.3710    0.0177 C.ar    1  UNL1        0.0410
     27 C           4.3487   -0.6914   -3.0502 C.ar    1  UNL1       -0.0615
     28 C           1.7120   -3.3106    1.8856 C.ar    1  UNL1       -0.0615
     29 C           5.8787   -0.9790   -1.2026 C.ar    1  UNL1       -0.0615
     30 C           0.1822   -3.0233    0.0379 C.ar    1  UNL1       -0.0615
     31 C           4.0805    2.5456    0.1877 C.3     1  UNL1        0.0029
     32 C           4.1618    2.6027    2.6291 C.3     1  UNL1        0.0029
     33 C           5.6247   -0.9924   -2.5741 C.ar    1  UNL1       -0.0617
     34 C           0.6475   -3.7778    1.1148 C.ar    1  UNL1       -0.0617
     35 H           0.0539    3.1688   -0.3988 H       1  UNL1        0.2033
     36 H          -1.5029    2.8498   -1.9940 H       1  UNL1        0.0815
     37 H          -0.3597    1.5519   -2.1625 H       1  UNL1        0.0815
     38 H          -1.1585    3.2613    1.6589 H       1  UNL1        0.0815
     39 H          -1.9796    3.9060    0.2255 H       1  UNL1        0.0815
     40 H          -2.6913    0.7434   -2.3138 H       1  UNL1        0.0348
     41 H          -1.9204    0.0098   -0.9145 H       1  UNL1        0.0348
     42 H          -2.4086    1.1555    1.5126 H       1  UNL1        0.0348
     43 H          -3.5416    2.5116    1.5369 H       1  UNL1        0.0348
     44 H           0.6355    1.8141    1.4238 H       1  UNL1        0.0815
     45 H          -0.3495    0.4963    0.7442 H       1  UNL1        0.0815
     46 H           1.0407    0.5862   -1.3453 H       1  UNL1        0.0333
     47 H           1.9180    1.9291   -0.7499 H       1  UNL1        0.0333
     48 H          -4.7226    2.9801   -0.5242 H       1  UNL1        0.2106
     49 H          -4.3652    0.3152    1.9166 H       1  UNL1        0.0622
     50 H          -4.9925    0.4317   -2.3701 H       1  UNL1        0.0622
     51 H           2.3522   -0.1782   -2.5775 H       1  UNL1        0.0621
     52 H           3.2197   -1.8588    2.1211 H       1  UNL1        0.0621
     53 H           5.0771   -0.6770    0.7539 H       1  UNL1        0.0621
     54 H           0.4046   -1.2730   -1.1317 H       1  UNL1        0.0621
     55 H          -6.1481   -1.3040    2.1336 H       1  UNL1        0.0632
     56 H          -6.7915   -1.2121   -2.1305 H       1  UNL1        0.0632
     57 H           4.1503   -0.7082   -4.1180 H       1  UNL1        0.0618
     58 H           2.0953   -3.9150    2.7027 H       1  UNL1        0.0618
     59 H           6.8715   -1.2172   -0.8321 H       1  UNL1        0.0618
     60 H          -0.6412   -3.3917   -0.5673 H       1  UNL1        0.0618
     61 H           5.1427    2.8101    0.2363 H       1  UNL1        0.0428
     62 H           3.9420    1.9818   -0.7239 H       1  UNL1        0.0428
     63 H           3.5006    3.4719    0.1190 H       1  UNL1        0.0428
     64 H           3.7265    3.6061    2.6169 H       1  UNL1        0.0428
     65 H           3.8455    2.0880    3.5397 H       1  UNL1        0.0428
     66 H           5.2535    2.6698    2.6200 H       1  UNL1        0.0428
     67 H           6.4201   -1.2393   -3.2712 H       1  UNL1        0.0618
     68 H           0.1871   -4.7337    1.3473 H       1  UNL1        0.0618
@<TRIPOS>UNITY_ATOM_ATTR
4 1
charge 1
@<TRIPOS>BOND
     1     1    26    1
     2     2     6    1
     3     2    48    1
     4     3    17    2
     5     4     7    1
     6     4     8    1
     7     4    11    1
     8     4    35    1
     9     5    17   am
    10     5    31    1
    11     5    32    1
    12     6     9    1
    13     6    10    1
    14     6    14    1
    15     7     9    1
    16     7    36    1
    17     7    37    1
    18     8    10    1
    19     8    38    1
    20     8    39    1
    21     9    40    1
    22     9    41    1
    23    10    42    1
    24    10    43    1
    25    11    12    1
    26    11    44    1
    27    11    45    1
    28    12    13    1
    29    12    46    1
    30    12    47    1
    31    13    15    1
    32    13    16    1
    33    13    17    1
    34    14    18   ar
    35    14    19   ar
    36    15    20   ar
    37    15    22   ar
    38    16    21   ar
    39    16    23   ar
    40    18    24   ar
    41    18    49    1
    42    19    25   ar
    43    19    50    1
    44    20    27   ar
    45    20    51    1
    46    21    28   ar
    47    21    52    1
    48    22    29   ar
    49    22    53    1
    50    23    30   ar
    51    23    54    1
    52    24    26   ar
    53    24    55    1
    54    25    26   ar
    55    25    56    1
    56    27    33   ar
    57    27    57    1
    58    28    34   ar
    59    28    58    1
    60    29    33   ar
    61    29    59    1
    62    30    34   ar
    63    30    60    1
    64    31    61    1
    65    31    62    1
    66    31    63    1
    67    32    64    1
    68    32    65    1
    69    32    66    1
    70    33    67    1
    71    34    68    1
@<TRIPOS>MOLECULE
71749831
 68 71 0 0 0
SMALL
GASTEIGER

@<TRIPOS>ATOM
      1 CL         -9.5790   -0.0785   -1.5086 Cl      1  UNL1       -0.0835
      2 O          -0.9724   -1.1092   -0.9423 O.co2   1  UNL1       -0.7753
      3 O          -3.8909    0.7498    1.8898 O.3     1  UNL1       -0.3836
      4 O           3.2568   -0.3008    2.4759 O.2     1  UNL1       -0.2743
      5 N          -1.0104   -0.4822    0.2777 N.3     1  UNL1        0.2173
      6 N           2.3817    1.7582    1.9721 N.am    1  UNL1       -0.3066
      7 C          -3.9259    0.0943    0.6123 C.3     1  UNL1        0.1005
      8 C          -1.8699   -1.2683    1.2463 C.3     1  UNL1       -0.0297
      9 C          -1.5648    0.9197    0.1301 C.3     1  UNL1       -0.0297
     10 C          -3.3318   -1.3185    0.8042 C.3     1  UNL1        0.0206
     11 C          -3.0228    0.9179   -0.3281 C.3     1  UNL1        0.0206
     12 C           0.3953   -0.4077    0.8076 C.3     1  UNL1       -0.0311
     13 C           1.3593   -0.0137   -0.3144 C.3     1  UNL1        0.0095
     14 C           2.8828    0.0295    0.0977 C.3     1  UNL1        0.1016
     15 C          -5.3576    0.0515    0.0752 C.ar    1  UNL1       -0.0157
     16 C           3.7209    0.9623   -0.8190 C.ar    1  UNL1       -0.0279
     17 C           3.5592   -1.3830   -0.0294 C.ar    1  UNL1       -0.0279
     18 C           2.8777    0.4982    1.6055 C.2     1  UNL1        0.2302
     19 C          -6.3976    0.6141    0.8153 C.ar    1  UNL1       -0.0545
     20 C          -5.6230   -0.5505   -1.1547 C.ar    1  UNL1       -0.0545
     21 C           3.3733    1.1183   -2.1608 C.ar    1  UNL1       -0.0573
     22 C           2.8241   -2.4672   -0.5086 C.ar    1  UNL1       -0.0573
     23 C           4.8212    1.6445   -0.2997 C.ar    1  UNL1       -0.0573
     24 C           4.8942   -1.5531    0.3374 C.ar    1  UNL1       -0.0573
     25 C          -7.7029    0.5749    0.3252 C.ar    1  UNL1       -0.0430
     26 C          -6.9283   -0.5897   -1.6449 C.ar    1  UNL1       -0.0430
     27 C          -7.9683   -0.0270   -0.9049 C.ar    1  UNL1        0.0410
     28 C           4.1260    1.9565   -2.9835 C.ar    1  UNL1       -0.0615
     29 C           3.4240   -3.7215   -0.6210 C.ar    1  UNL1       -0.0615
     30 C           5.5738    2.4828   -1.1223 C.ar    1  UNL1       -0.0615
     31 C           5.4942   -2.8074    0.2249 C.ar    1  UNL1       -0.0615
     32 C           2.2782    2.2077    3.3592 C.3     1  UNL1        0.0029
     33 C           1.9174    2.7509    1.0044 C.3     1  UNL1        0.0029
     34 C           5.2263    2.6387   -2.4642 C.ar    1  UNL1       -0.0617
     35 C           4.7590   -3.8915   -0.2543 C.ar    1  UNL1       -0.0617
     36 H          -1.7566   -0.7915    2.2264 H       1  UNL1        0.0814
     37 H          -1.4492   -2.2796    1.2858 H       1  UNL1        0.0814
     38 H          -0.9568    1.4419   -0.6130 H       1  UNL1        0.0814
     39 H          -1.4543    1.4135    1.1018 H       1  UNL1        0.0814
     40 H          -3.9034   -1.8691    1.5621 H       1  UNL1        0.0348
     41 H          -3.3997   -1.8983   -0.1239 H       1  UNL1        0.0348
     42 H          -3.0677    0.5309   -1.3532 H       1  UNL1        0.0348
     43 H          -3.3707    1.9584   -0.3656 H       1  UNL1        0.0348
     44 H           0.3546    0.2738    1.6591 H       1  UNL1        0.0814
     45 H           0.6345   -1.4134    1.1708 H       1  UNL1        0.0814
     46 H           1.2227   -0.5996   -1.2276 H       1  UNL1        0.0333
     47 H           1.0593    0.9808   -0.6535 H       1  UNL1        0.0333
     48 H          -4.2408    0.1360    2.5581 H       1  UNL1        0.2106
     49 H          -6.2328    1.0944    1.7748 H       1  UNL1        0.0622
     50 H          -4.8303   -0.9950   -1.7496 H       1  UNL1        0.0622
     51 H           2.5354    0.5897   -2.6033 H       1  UNL1        0.0621
     52 H           1.7813   -2.4224   -0.7918 H       1  UNL1        0.0621
     53 H           5.1175    1.5505    0.7407 H       1  UNL1        0.0621
     54 H           5.4913   -0.7428    0.7403 H       1  UNL1        0.0621
     55 H          -8.5037    1.0174    0.9121 H       1  UNL1        0.0632
     56 H          -7.1204   -1.0622   -2.6047 H       1  UNL1        0.0632
     57 H           3.8582    2.0750   -4.0294 H       1  UNL1        0.0618
     58 H           2.8511   -4.5679   -0.9888 H       1  UNL1        0.0618
     59 H           6.4299    3.0149   -0.7180 H       1  UNL1        0.0618
     60 H           6.5317   -2.9417    0.5168 H       1  UNL1        0.0618
     61 H           2.9147    3.0864    3.4968 H       1  UNL1        0.0428
     62 H           2.6002    1.4244    4.0497 H       1  UNL1        0.0428
     63 H           1.2365    2.4647    3.5721 H       1  UNL1        0.0428
     64 H           0.8311    2.8391    1.1041 H       1  UNL1        0.0428
     65 H           2.1558    2.5665   -0.0323 H       1  UNL1        0.0428
     66 H           2.3647    3.7170    1.2633 H       1  UNL1        0.0428
     67 H           5.8127    3.2908   -3.1048 H       1  UNL1        0.0618
     68 H           5.2252   -4.8687   -0.3393 H       1  UNL1        0.0618
@<TRIPOS>UNITY_ATOM_ATTR
2 1
charge -1
5 1
charge 1
@<TRIPOS>BOND
     1     1    27    1
     2     2     5    1
     3     3     7    1
     4     3    48    1
     5     4    18    2
     6     5     8    1
     7     5     9    1
     8     5    12    1
     9     6    18   am
    10     6    32    1
    11     6    33    1
    12     7    10    1
    13     7    11    1
    14     7    15    1
    15     8    10    1
    16     8    36    1
    17     8    37    1
    18     9    11    1
    19     9    38    1
    20     9    39    1
    21    10    40    1
    22    10    41    1
    23    11    42    1
    24    11    43    1
    25    12    13    1
    26    12    44    1
    27    12    45    1
    28    13    14    1
    29    13    46    1
    30    13    47    1
    31    14    16    1
    32    14    17    1
    33    14    18    1
    34    15    19   ar
    35    15    20   ar
    36    16    21   ar
    37    16    23   ar
    38    17    22   ar
    39    17    24   ar
    40    19    25   ar
    41    19    49    1
    42    20    26   ar
    43    20    50    1
    44    21    28   ar
    45    21    51    1
    46    22    29   ar
    47    22    52    1
    48    23    30   ar
    49    23    53    1
    50    24    31   ar
    51    24    54    1
    52    25    27   ar
    53    25    55    1
    54    26    27   ar
    55    26    56    1
    56    28    34   ar
    57    28    57    1
    58    29    35   ar
    59    29    58    1
    60    30    34   ar
    61    30    59    1
    62    31    35   ar
    63    31    60    1
    64    32    61    1
    65    32    62    1
    66    32    63    1
    67    33    64    1
    68    33    65    1
    69    33    66    1
    70    34    67    1
    71    35    68    1
@<TRIPOS>MOLECULE
46781171
 64 67 0 0 0
SMALL
GASTEIGER

@<TRIPOS>ATOM
      1 CL          9.3928   -1.0505    1.3482 Cl      1  UNL1       -0.0835
      2 O           4.0009    1.8649   -1.0134 O.3     1  UNL1       -0.3839
      3 O          -3.4891    0.4021   -2.5185 O.2     1  UNL1       -0.2745
      4 N           0.9555   -0.0500   -0.6889 N.3     1  UNL1       -0.3021
      5 N          -2.6941   -1.7231   -2.1012 N.am    1  UNL1       -0.3174
      6 C           3.8571    0.5457   -0.4663 C.3     1  UNL1        0.0933
      7 C           2.8844    0.5902    0.7348 C.3     1  UNL1       -0.0070
      8 C           3.2454   -0.3552   -1.5623 C.3     1  UNL1       -0.0070
      9 C           1.4353    0.8893    0.3299 C.3     1  UNL1        0.0018
     10 C           1.7918    0.0038   -1.8928 C.3     1  UNL1        0.0018
     11 C          -0.4419    0.2248   -1.0223 C.3     1  UNL1        0.0004
     12 C          -1.3669   -0.3601    0.0610 C.3     1  UNL1       -0.0181
     13 C          -2.9157   -0.1527   -0.1877 C.3     1  UNL1        0.0977
     14 C           5.2587    0.1414   -0.0058 C.ar    1  UNL1       -0.0160
     15 C          -3.7483   -1.1460    0.6776 C.ar    1  UNL1       -0.0281
     16 C          -3.4100    1.2778    0.1726 C.ar    1  UNL1       -0.0281
     17 C          -3.0942   -0.4465   -1.7179 C.2     1  UNL1        0.2277
     18 C           5.8853   -0.9689   -0.5720 C.ar    1  UNL1       -0.0545
     19 C           5.9103    0.8827    0.9798 C.ar    1  UNL1       -0.0545
     20 C          -4.9511   -1.6573    0.1902 C.ar    1  UNL1       -0.0573
     21 C          -4.7450    1.6270   -0.0313 C.ar    1  UNL1       -0.0573
     22 C          -3.2902   -1.5241    1.9396 C.ar    1  UNL1       -0.0573
     23 C          -2.5178    2.2112    0.7002 C.ar    1  UNL1       -0.0573
     24 C           7.1632   -1.3380   -0.1524 C.ar    1  UNL1       -0.0430
     25 C           7.1883    0.5136    1.3994 C.ar    1  UNL1       -0.0430
     26 C           7.8147   -0.5967    0.8333 C.ar    1  UNL1        0.0410
     27 C          -5.6959   -2.5468    0.9649 C.ar    1  UNL1       -0.0615
     28 C          -5.1878    2.9095    0.2923 C.ar    1  UNL1       -0.0615
     29 C          -4.0347   -2.4137    2.7142 C.ar    1  UNL1       -0.0615
     30 C          -2.9607    3.4936    1.0241 C.ar    1  UNL1       -0.0615
     31 C          -5.2376   -2.9249    2.2269 C.ar    1  UNL1       -0.0617
     32 C          -4.2957    3.8428    0.8199 C.ar    1  UNL1       -0.0617
     33 C          -2.7073   -2.1658   -3.4762 C.3     1  UNL1        0.0001
     34 H           3.1851    1.3644    1.4514 H       1  UNL1        0.0309
     35 H           2.9121   -0.3700    1.2684 H       1  UNL1        0.0309
     36 H           3.2581   -1.4064   -1.2445 H       1  UNL1        0.0309
     37 H           3.8281   -0.2770   -2.4892 H       1  UNL1        0.0309
     38 H           0.8352    0.8209    1.2430 H       1  UNL1        0.0427
     39 H           1.3541    1.9262   -0.0209 H       1  UNL1        0.0427
     40 H           1.7381    0.9900   -2.3707 H       1  UNL1        0.0427
     41 H           1.4329   -0.7271   -2.6286 H       1  UNL1        0.0427
     42 H          -0.6147    1.2957   -1.1788 H       1  UNL1        0.0427
     43 H          -0.6544   -0.2577   -1.9800 H       1  UNL1        0.0427
     44 H          -1.1571   -1.4404    0.0976 H       1  UNL1        0.0294
     45 H          -1.0873   -0.0050    1.0573 H       1  UNL1        0.0294
     46 H           3.1236    2.2161   -1.2339 H       1  UNL1        0.2106
     47 H           5.4282   -1.5741   -1.3468 H       1  UNL1        0.0622
     48 H           5.4474    1.7585    1.4255 H       1  UNL1        0.0622
     49 H          -5.3388   -1.3849   -0.7869 H       1  UNL1        0.0621
     50 H          -5.4621    0.9366   -0.4617 H       1  UNL1        0.0621
     51 H          -2.3719   -1.1330    2.3640 H       1  UNL1        0.0621
     52 H          -1.4719    2.0076    0.8872 H       1  UNL1        0.0621
     53 H           7.6408   -2.2040   -0.6037 H       1  UNL1        0.0632
     54 H           7.6855    1.1023    2.1661 H       1  UNL1        0.0632
     55 H          -2.4225   -2.3994   -1.3949 H       1  UNL1        0.1484
     56 H          -6.6327   -2.9447    0.5860 H       1  UNL1        0.0618
     57 H          -6.2259    3.1835    0.1284 H       1  UNL1        0.0618
     58 H          -3.6810   -2.7046    3.6990 H       1  UNL1        0.0618
     59 H          -2.2668    4.2211    1.4355 H       1  UNL1        0.0618
     60 H          -5.8180   -3.6164    2.8306 H       1  UNL1        0.0618
     61 H          -4.6402    4.8418    1.0709 H       1  UNL1        0.0618
     62 H          -2.4256   -1.3450   -4.1407 H       1  UNL1        0.0426
     63 H          -2.0022   -2.9933   -3.5820 H       1  UNL1        0.0426
     64 H          -3.7172   -2.5047   -3.7200 H       1  UNL1        0.0426
@<TRIPOS>BOND
     1     1    26    1
     2     2     6    1
     3     2    46    1
     4     3    17    2
     5     4     9    1
     6     4    10    1
     7     4    11    1
     8     5    17   am
     9     5    33    1
    10     5    55    1
    11     6     7    1
    12     6     8    1
    13     6    14    1
    14     7     9    1
    15     7    34    1
    16     7    35    1
    17     8    10    1
    18     8    36    1
    19     8    37    1
    20     9    38    1
    21     9    39    1
    22    10    40    1
    23    10    41    1
    24    11    12    1
    25    11    42    1
    26    11    43    1
    27    12    13    1
    28    12    44    1
    29    12    45    1
    30    13    15    1
    31    13    16    1
    32    13    17    1
    33    14    18   ar
    34    14    19   ar
    35    15    20   ar
    36    15    22   ar
    37    16    21   ar
    38    16    23   ar
    39    18    24   ar
    40    18    47    1
    41    19    25   ar
    42    19    48    1
    43    20    27   ar
    44    20    49    1
    45    21    28   ar
    46    21    50    1
    47    22    29   ar
    48    22    51    1
    49    23    30   ar
    50    23    52    1
    51    24    26   ar
    52    24    53    1
    53    25    26   ar
    54    25    54    1
    55    27    31   ar
    56    27    56    1
    57    28    32   ar
    58    28    57    1
    59    29    31   ar
    60    29    58    1
    61    30    32   ar
    62    30    59    1
    63    31    60    1
    64    32    61    1
    65    33    62    1
    66    33    63    1
    67    33    64    1
@<TRIPOS>MOLECULE
45039664
 67 70 0 0 0
SMALL
GASTEIGER

@<TRIPOS>ATOM
      1 CL          9.4701    1.4778    0.6849 Cl      1  UNL1       -0.0835
      2 O           3.9854   -2.0846    0.0697 O.3     1  UNL1       -0.3839
      3 O          -4.3409   -0.4225   -2.1154 O.2     1  UNL1       -0.2743
      4 N           0.9807   -0.1783   -0.5498 N.3     1  UNL1       -0.3021
      5 N          -2.8032    1.1957   -2.6071 N.am    1  UNL1       -0.3066
      6 C           3.8636   -0.6570   -0.0175 C.3     1  UNL1        0.0933
      7 C           2.8536   -0.2033    1.0599 C.3     1  UNL1       -0.0070
      8 C           3.3070   -0.2723   -1.4080 C.3     1  UNL1       -0.0070
      9 C           1.4182   -0.6558    0.7664 C.3     1  UNL1        0.0018
     10 C           1.8469   -0.6952   -1.6141 C.3     1  UNL1        0.0018
     11 C          -0.4119   -0.5530   -0.7945 C.3     1  UNL1        0.0004
     12 C          -1.3533    0.4362   -0.0889 C.3     1  UNL1       -0.0181
     13 C          -2.8976    0.1595   -0.2270 C.3     1  UNL1        0.0979
     14 C           5.2834   -0.1161    0.1594 C.ar    1  UNL1       -0.0160
     15 C          -3.7786    1.1412    0.6051 C.ar    1  UNL1       -0.0281
     16 C          -3.0891   -1.3038    0.3227 C.ar    1  UNL1       -0.0281
     17 C          -3.3930    0.2787   -1.7305 C.2     1  UNL1        0.2300
     18 C           5.5815    0.7210    1.2348 C.ar    1  UNL1       -0.0545
     19 C           6.2801   -0.4596   -0.7539 C.ar    1  UNL1       -0.0545
     20 C          -5.1626    0.9724    0.6468 C.ar    1  UNL1       -0.0573
     21 C          -3.3867   -1.5100    1.6698 C.ar    1  UNL1       -0.0573
     22 C          -3.1823    2.1883    1.3075 C.ar    1  UNL1       -0.0573
     23 C          -2.9610   -2.3940   -0.5378 C.ar    1  UNL1       -0.0573
     24 C           6.8758    1.2146    1.3966 C.ar    1  UNL1       -0.0430
     25 C           7.5745    0.0339   -0.5923 C.ar    1  UNL1       -0.0430
     26 C           7.8724    0.8711    0.4830 C.ar    1  UNL1        0.0410
     27 C          -5.9503    1.8508    1.3911 C.ar    1  UNL1       -0.0615
     28 C          -3.5562   -2.8063    2.1563 C.ar    1  UNL1       -0.0615
     29 C          -3.9699    3.0666    2.0518 C.ar    1  UNL1       -0.0615
     30 C          -3.1306   -3.6903   -0.0515 C.ar    1  UNL1       -0.0615
     31 C          -2.2380    2.4966   -2.2707 C.3     1  UNL1        0.0029
     32 C          -2.8062    0.8964   -4.0361 C.3     1  UNL1        0.0029
     33 C          -5.3539    2.8978    2.0935 C.ar    1  UNL1       -0.0617
     34 C          -3.4280   -3.8964    1.2957 C.ar    1  UNL1       -0.0617
     35 H           3.1359   -0.6019    2.0430 H       1  UNL1        0.0309
     36 H           2.8410    0.8925    1.1343 H       1  UNL1        0.0309
     37 H           3.3839    0.8147   -1.5486 H       1  UNL1        0.0309
     38 H           3.8940   -0.7417   -2.2068 H       1  UNL1        0.0309
     39 H           0.7864   -0.2551    1.5655 H       1  UNL1        0.0427
     40 H           1.3585   -1.7505    0.8296 H       1  UNL1        0.0427
     41 H           1.7848   -1.7901   -1.6694 H       1  UNL1        0.0427
     42 H           1.5206   -0.3031   -2.5854 H       1  UNL1        0.0427
     43 H          -0.5623   -1.5890   -0.4821 H       1  UNL1        0.0427
     44 H          -0.6313   -0.5066   -1.8679 H       1  UNL1        0.0427
     45 H          -1.1219    0.3984    0.9844 H       1  UNL1        0.0294
     46 H          -1.0779    1.4461   -0.3947 H       1  UNL1        0.0294
     47 H           4.3409   -2.3051    0.9480 H       1  UNL1        0.2106
     48 H           4.8477    1.0120    1.9780 H       1  UNL1        0.0622
     49 H           6.0743   -1.1202   -1.5913 H       1  UNL1        0.0622
     50 H          -5.6513    0.1628    0.1126 H       1  UNL1        0.0621
     51 H          -3.4608   -0.6936    2.3812 H       1  UNL1        0.0621
     52 H          -2.1138    2.3693    1.3105 H       1  UNL1        0.0621
     53 H          -2.7076   -2.2739   -1.5869 H       1  UNL1        0.0621
     54 H           7.0949    1.8641    2.2404 H       1  UNL1        0.0632
     55 H           8.3419   -0.2446   -1.3099 H       1  UNL1        0.0632
     56 H          -7.0278    1.7189    1.4246 H       1  UNL1        0.0618
     57 H          -3.7796   -2.9677    3.2069 H       1  UNL1        0.0618
     58 H          -3.5063    3.8825    2.5988 H       1  UNL1        0.0618
     59 H          -3.0250   -4.5397   -0.7201 H       1  UNL1        0.0618
     60 H          -1.1529    2.4590   -2.3996 H       1  UNL1        0.0428
     61 H          -2.4986    2.8000   -1.2595 H       1  UNL1        0.0428
     62 H          -2.6498    3.2464   -2.9541 H       1  UNL1        0.0428
     63 H          -3.5034    1.5745   -4.5366 H       1  UNL1        0.0428
     64 H          -3.1125   -0.1365   -4.2244 H       1  UNL1        0.0428
     65 H          -1.7972    1.0425   -4.4329 H       1  UNL1        0.0428
     66 H          -5.9671    3.5816    2.6731 H       1  UNL1        0.0618
     67 H          -3.5567   -4.9059    1.6751 H       1  UNL1        0.0618
@<TRIPOS>BOND
     1     1    26    1
     2     2     6    1
     3     2    47    1
     4     3    17    2
     5     4     9    1
     6     4    10    1
     7     4    11    1
     8     5    17   am
     9     5    31    1
    10     5    32    1
    11     6     7    1
    12     6     8    1
    13     6    14    1
    14     7     9    1
    15     7    35    1
    16     7    36    1
    17     8    10    1
    18     8    37    1
    19     8    38    1
    20     9    39    1
    21     9    40    1
    22    10    41    1
    23    10    42    1
    24    11    12    1
    25    11    43    1
    26    11    44    1
    27    12    13    1
    28    12    45    1
    29    12    46    1
    30    13    15    1
    31    13    16    1
    32    13    17    1
    33    14    18   ar
    34    14    19   ar
    35    15    20   ar
    36    15    22   ar
    37    16    21   ar
    38    16    23   ar
    39    18    24   ar
    40    18    48    1
    41    19    25   ar
    42    19    49    1
    43    20    27   ar
    44    20    50    1
    45    21    28   ar
    46    21    51    1
    47    22    29   ar
    48    22    52    1
    49    23    30   ar
    50    23    53    1
    51    24    26   ar
    52    24    54    1
    53    25    26   ar
    54    25    55    1
    55    27    33   ar
    56    27    56    1
    57    28    34   ar
    58    28    57    1
    59    29    33   ar
    60    29    58    1
    61    30    34   ar
    62    30    59    1
    63    31    60    1
    64    31    61    1
    65    31    62    1
    66    32    63    1
    67    32    64    1
    68    32    65    1
    69    33    66    1
    70    34    67    1
@<TRIPOS>MOLECULE
25129795
 61 64 0 0 0
SMALL
GASTEIGER

@<TRIPOS>ATOM
      1 CL          9.3693   -1.4886   -0.4857 Cl      1  UNL1       -0.0835
      2 O           3.8609    2.0816   -0.2418 O.3     1  UNL1       -0.3839
      3 O          -3.0362    1.1065    2.5999 O.2     1  UNL1       -0.2747
      4 N           0.8799    0.2432    0.6416 N.3     1  UNL1       -0.3021
      5 N          -3.4064   -1.1399    2.7302 N.am    1  UNL1       -0.3283
      6 C           3.7525    0.6745    0.0206 C.3     1  UNL1        0.0933
      7 C           2.7345    0.0852   -0.9812 C.3     1  UNL1       -0.0070
      8 C           3.2148    0.4584    1.4541 C.3     1  UNL1       -0.0070
      9 C           1.2989    0.5599   -0.7280 C.3     1  UNL1        0.0018
     10 C           1.7532    0.8924    1.6246 C.3     1  UNL1        0.0018
     11 C          -0.5132    0.6345    0.8552 C.3     1  UNL1        0.0004
     12 C          -1.4549   -0.4541    0.3086 C.3     1  UNL1       -0.0181
     13 C          -3.0001   -0.1620    0.4823 C.3     1  UNL1        0.0975
     14 C           5.1747    0.1259   -0.1069 C.ar    1  UNL1       -0.0160
     15 C          -3.4784    1.0951   -0.2984 C.ar    1  UNL1       -0.0281
     16 C          -3.8502   -1.3616   -0.0333 C.ar    1  UNL1       -0.0281
     17 C          -3.1705    0.0256    2.0262 C.2     1  UNL1        0.2254
     18 C           5.4679   -0.8339   -1.0758 C.ar    1  UNL1       -0.0545
     19 C           6.1788    0.5869    0.7445 C.ar    1  UNL1       -0.0545
     20 C          -4.5181    1.8761    0.2065 C.ar    1  UNL1       -0.0573
     21 C          -5.2387   -1.3406    0.0995 C.ar    1  UNL1       -0.0573
     22 C          -2.8682    1.4415   -1.5039 C.ar    1  UNL1       -0.0573
     23 C          -3.2231   -2.4566   -0.6275 C.ar    1  UNL1       -0.0573
     24 C           6.7651   -1.3328   -1.1931 C.ar    1  UNL1       -0.0430
     25 C           7.4761    0.0880    0.6272 C.ar    1  UNL1       -0.0430
     26 C           7.7692   -0.8718   -0.3416 C.ar    1  UNL1        0.0410
     27 C          -4.9474    3.0034   -0.4939 C.ar    1  UNL1       -0.0615
     28 C          -5.9998   -2.4148   -0.3617 C.ar    1  UNL1       -0.0615
     29 C          -3.2973    2.5688   -2.2043 C.ar    1  UNL1       -0.0615
     30 C          -3.9840   -3.5307   -1.0888 C.ar    1  UNL1       -0.0615
     31 C          -4.3371    3.3497   -1.6993 C.ar    1  UNL1       -0.0617
     32 C          -5.3725   -3.5097   -0.9558 C.ar    1  UNL1       -0.0617
     33 H           3.0039    0.3671   -2.0074 H       1  UNL1        0.0309
     34 H           2.7310   -1.0116   -0.9232 H       1  UNL1        0.0309
     35 H           3.3029   -0.6028    1.7252 H       1  UNL1        0.0309
     36 H           3.8064    1.0258    2.1828 H       1  UNL1        0.0309
     37 H           0.6608    0.0530   -1.4598 H       1  UNL1        0.0427
     38 H           1.2152    1.6352   -0.9310 H       1  UNL1        0.0427
     39 H           1.6733    1.9851    1.5605 H       1  UNL1        0.0427
     40 H           1.4444    0.6105    2.6392 H       1  UNL1        0.0427
     41 H          -0.6867    0.7183    1.9331 H       1  UNL1        0.0427
     42 H          -0.7272    1.6204    0.4269 H       1  UNL1        0.0427
     43 H          -1.2046   -1.3786    0.8513 H       1  UNL1        0.0294
     44 H          -1.2197   -0.6433   -0.7430 H       1  UNL1        0.0294
     45 H           3.0048    2.5049   -0.0701 H       1  UNL1        0.2106
     46 H           4.7283   -1.2197   -1.7681 H       1  UNL1        0.0622
     47 H           5.9767    1.3431    1.4976 H       1  UNL1        0.0622
     48 H          -5.0309    1.6328    1.1318 H       1  UNL1        0.0621
     49 H          -5.7587   -0.5192    0.5798 H       1  UNL1        0.0621
     50 H          -2.0716    0.8511   -1.9425 H       1  UNL1        0.0621
     51 H          -2.1521   -2.5404   -0.7641 H       1  UNL1        0.0621
     52 H           6.9802   -2.0792   -1.9535 H       1  UNL1        0.0632
     53 H           8.2492    0.4582    1.2956 H       1  UNL1        0.0632
     54 H          -3.4419   -2.0586    2.3027 H       1  UNL1        0.1450
     55 H          -3.5150   -1.1155    3.7388 H       1  UNL1        0.1450
     56 H          -5.7597    3.6093   -0.1031 H       1  UNL1        0.0618
     57 H          -7.0804   -2.4016   -0.2527 H       1  UNL1        0.0618
     58 H          -2.8256    2.8361   -3.1455 H       1  UNL1        0.0618
     59 H          -3.4967   -4.3841   -1.5514 H       1  UNL1        0.0618
     60 H          -4.6726    4.2263   -2.2458 H       1  UNL1        0.0618
     61 H          -5.9650   -4.3467   -1.3137 H       1  UNL1        0.0618
@<TRIPOS>BOND
     1     1    26    1
     2     2     6    1
     3     2    45    1
     4     3    17    2
     5     4     9    1
     6     4    10    1
     7     4    11    1
     8     5    17   am
     9     5    54    1
    10     5    55    1
    11     6     7    1
    12     6     8    1
    13     6    14    1
    14     7     9    1
    15     7    33    1
    16     7    34    1
    17     8    10    1
    18     8    35    1
    19     8    36    1
    20     9    37    1
    21     9    38    1
    22    10    39    1
    23    10    40    1
    24    11    12    1
    25    11    41    1
    26    11    42    1
    27    12    13    1
    28    12    43    1
    29    12    44    1
    30    13    15    1
    31    13    16    1
    32    13    17    1
    33    14    18   ar
    34    14    19   ar
    35    15    20   ar
    36    15    22   ar
    37    16    21   ar
    38    16    23   ar
    39    18    24   ar
    40    18    46    1
    41    19    25   ar
    42    19    47    1
    43    20    27   ar
    44    20    48    1
    45    21    28   ar
    46    21    49    1
    47    22    29   ar
    48    22    50    1
    49    23    30   ar
    50    23    51    1
    51    24    26   ar
    52    24    52    1
    53    25    26   ar
    54    25    53    1
    55    27    31   ar
    56    27    56    1
    57    28    32   ar
    58    28    57    1
    59    29    31   ar
    60    29    58    1
    61    30    32   ar
    62    30    59    1
    63    31    60    1
    64    32    61    1
@<TRIPOS>MOLECULE
38282
 28 29 0 0 0
SMALL
GASTEIGER

@<TRIPOS>ATOM
      1 CL          4.9546   -0.1171   -0.3300 Cl      1  UNL1       -0.0835
      2 O          -1.3261    0.5907    1.6234 O.3     1  UNL1       -0.3839
      3 N          -3.7968   -0.2208   -0.7410 N.3     1  UNL1       -0.3158
      4 C          -1.0459    0.0820    0.3086 C.3     1  UNL1        0.0932
      5 C          -1.7702   -1.2780    0.1895 C.3     1  UNL1       -0.0072
      6 C          -1.6720    1.0554   -0.7144 C.3     1  UNL1       -0.0072
      7 C          -3.2919   -1.1333    0.2829 C.3     1  UNL1       -0.0012
      8 C          -3.1998    1.1065   -0.6118 C.3     1  UNL1       -0.0012
      9 C           0.4728    0.0317    0.1460 C.ar    1  UNL1       -0.0160
     10 C           1.1074   -1.1866   -0.0921 C.ar    1  UNL1       -0.0545
     11 C           1.2218    1.2041    0.2371 C.ar    1  UNL1       -0.0545
     12 C           2.4937   -1.2326   -0.2393 C.ar    1  UNL1       -0.0430
     13 C           2.6082    1.1582    0.0897 C.ar    1  UNL1       -0.0430
     14 C           3.2442   -0.0603   -0.1486 C.ar    1  UNL1        0.0410
     15 H          -1.4513   -1.9514    0.9954 H       1  UNL1        0.0309
     16 H          -1.5304   -1.7612   -0.7670 H       1  UNL1        0.0309
     17 H          -1.3857    0.7616   -1.7334 H       1  UNL1        0.0309
     18 H          -1.3063    2.0779   -0.5613 H       1  UNL1        0.0309
     19 H          -3.7524   -2.1159    0.1291 H       1  UNL1        0.0425
     20 H          -3.6091   -0.8059    1.2792 H       1  UNL1        0.0425
     21 H          -3.5244    1.5796    0.3217 H       1  UNL1        0.0425
     22 H          -3.5876    1.7404   -1.4176 H       1  UNL1        0.0425
     23 H          -3.5677   -0.5975   -1.6611 H       1  UNL1        0.1219
     24 H          -2.2788    0.7264    1.7357 H       1  UNL1        0.2106
     25 H           0.5712   -2.1261   -0.1657 H       1  UNL1        0.0622
     26 H           0.7496    2.1618    0.4362 H       1  UNL1        0.0622
     27 H           2.9766   -2.1890   -0.4232 H       1  UNL1        0.0632
     28 H           3.1806    2.0792    0.1662 H       1  UNL1        0.0632
@<TRIPOS>BOND
     1     1    14    1
     2     2     4    1
     3     2    24    1
     4     3     7    1
     5     3     8    1
     6     3    23    1
     7     4     5    1
     8     4     6    1
     9     4     9    1
    10     5     7    1
    11     5    15    1
    12     5    16    1
    13     6     8    1
    14     6    17    1
    15     6    18    1
    16     7    19    1
    17     7    20    1
    18     8    21    1
    19     8    22    1
    20     9    10   ar
    21     9    11   ar
    22    10    12   ar
    23    10    25    1
    24    11    13   ar
    25    11    26    1
    26    12    14   ar
    27    12    27    1
    28    13    14   ar
    29    13    28    1
@<TRIPOS>MOLECULE
3705191
 67 70 0 0 0
SMALL
GASTEIGER

@<TRIPOS>ATOM
      1 O           4.1623   -1.7683    0.7205 O.3     1  UNL1       -0.3839
      2 O          -4.0868   -0.5013   -2.0868 O.2     1  UNL1       -0.2743
      3 N           1.2703   -0.1174   -0.6790 N.3     1  UNL1       -0.3021
      4 N          -2.6087    1.1598   -2.6170 N.am    1  UNL1       -0.3066
      5 C           4.0977   -0.4435    0.1717 C.3     1  UNL1        0.0933
      6 C           3.6382   -0.5196   -1.3027 C.3     1  UNL1       -0.0070
      7 C           3.0432    0.3492    0.9758 C.3     1  UNL1       -0.0070
      8 C           2.1782   -0.9633   -1.4602 C.3     1  UNL1        0.0018
      9 C           1.6122   -0.1516    0.7472 C.3     1  UNL1        0.0018
     10 C          -0.1182   -0.5292   -0.8835 C.3     1  UNL1        0.0004
     11 C          -1.0648    0.4315   -0.1460 C.3     1  UNL1       -0.0181
     12 C          -2.6043    0.1134   -0.2394 C.3     1  UNL1        0.0979
     13 C           5.5232    0.1040    0.2615 C.ar    1  UNL1       -0.0160
     14 C          -2.7398   -1.3565    0.3095 C.ar    1  UNL1       -0.0281
     15 C          -3.4865    1.0680    0.6225 C.ar    1  UNL1       -0.0281
     16 C          -3.1473    0.2242   -1.7271 C.2     1  UNL1        0.2300
     17 C           6.5574   -0.5319   -0.4236 C.ar    1  UNL1       -0.0559
     18 C           5.7859    1.2380    1.0287 C.ar    1  UNL1       -0.0559
     19 C          -2.6013   -2.3625   -0.5879 C.ar    1  UNL1       -0.0573
     20 C          -2.8600    2.0867    1.2745 C.ar    1  UNL1       -0.0573
     21 C          -2.9844   -1.4969    1.6350 C.ar    1  UNL1       -0.0573
     22 C          -4.8250    0.8193    0.6665 C.ar    1  UNL1       -0.0573
     23 C           7.8574   -0.0325   -0.3413 C.ar    1  UNL1       -0.0614
     24 C           7.0857    1.7373    1.1109 C.ar    1  UNL1       -0.0614
     25 C           8.1214    1.1020    0.4260 C.ar    1  UNL1       -0.0617
     26 C          -2.7217   -3.6643   -0.1016 C.ar    1  UNL1       -0.0615
     27 C          -3.6493    2.9402    2.0455 C.ar    1  UNL1       -0.0615
     28 C          -3.1047   -2.7987    2.1213 C.ar    1  UNL1       -0.0615
     29 C          -5.6142    1.6729    1.4374 C.ar    1  UNL1       -0.0615
     30 C          -2.6461    0.8652   -4.0463 C.3     1  UNL1        0.0029
     31 C          -2.0705    2.4748   -2.2921 C.3     1  UNL1        0.0029
     32 C          -2.9734   -3.8823    1.2530 C.ar    1  UNL1       -0.0617
     33 C          -5.0264    2.7332    2.1270 C.ar    1  UNL1       -0.0617
     34 H           3.7628    0.4626   -1.7792 H       1  UNL1        0.0309
     35 H           4.2534   -1.2306   -1.8676 H       1  UNL1        0.0309
     36 H           3.2550    0.2806    2.0508 H       1  UNL1        0.0309
     37 H           3.0678    1.4109    0.6949 H       1  UNL1        0.0309
     38 H           1.9212   -0.8935   -2.5247 H       1  UNL1        0.0427
     39 H           2.0749   -2.0191   -1.1785 H       1  UNL1        0.0427
     40 H           1.4817   -1.1554    1.1702 H       1  UNL1        0.0427
     41 H           1.0019    0.5343    1.3390 H       1  UNL1        0.0427
     42 H          -0.2231   -1.5581   -0.5307 H       1  UNL1        0.0427
     43 H          -0.3542   -0.5110   -1.9534 H       1  UNL1        0.0427
     44 H          -0.8180    1.4506   -0.4460 H       1  UNL1        0.0294
     45 H          -0.8430    0.3703    0.9247 H       1  UNL1        0.0294
     46 H           3.3034   -2.2042    0.6023 H       1  UNL1        0.2106
     47 H           6.3778   -1.4240   -1.0166 H       1  UNL1        0.0621
     48 H           5.0210    1.7648    1.5877 H       1  UNL1        0.0621
     49 H          -2.3746   -2.2277   -1.6385 H       1  UNL1        0.0621
     50 H          -1.8005    2.2997    1.2491 H       1  UNL1        0.0621
     51 H          -3.0478   -0.6866    2.3503 H       1  UNL1        0.0621
     52 H          -5.3008   -0.0021    0.1431 H       1  UNL1        0.0621
     53 H           8.6646   -0.5287   -0.8720 H       1  UNL1        0.0618
     54 H           7.2926    2.6194    1.7099 H       1  UNL1        0.0618
     55 H           9.1337    1.4900    0.4911 H       1  UNL1        0.0618
     56 H          -2.6113   -4.5087   -0.7759 H       1  UNL1        0.0618
     57 H          -3.1925    3.7666    2.5825 H       1  UNL1        0.0618
     58 H          -3.2897   -2.9694    3.1779 H       1  UNL1        0.0618
     59 H          -6.6863    1.5110    1.5020 H       1  UNL1        0.0618
     60 H          -3.3773    1.5245   -4.5230 H       1  UNL1        0.0428
     61 H          -2.9281   -0.1754   -4.2297 H       1  UNL1        0.0428
     62 H          -1.6541    1.0417   -4.4726 H       1  UNL1        0.0428
     63 H          -2.5206    3.2147   -2.9621 H       1  UNL1        0.0428
     64 H          -0.9887    2.4669   -2.4501 H       1  UNL1        0.0428
     65 H          -2.3111    2.7693   -1.2738 H       1  UNL1        0.0428
     66 H          -3.0627   -4.8961    1.6324 H       1  UNL1        0.0618
     67 H          -5.6407    3.3976    2.7275 H       1  UNL1        0.0618
@<TRIPOS>BOND
     1     1     5    1
     2     1    46    1
     3     2    16    2
     4     3     8    1
     5     3     9    1
     6     3    10    1
     7     4    16   am
     8     4    30    1
     9     4    31    1
    10     5     6    1
    11     5     7    1
    12     5    13    1
    13     6     8    1
    14     6    34    1
    15     6    35    1
    16     7     9    1
    17     7    36    1
    18     7    37    1
    19     8    38    1
    20     8    39    1
    21     9    40    1
    22     9    41    1
    23    10    11    1
    24    10    42    1
    25    10    43    1
    26    11    12    1
    27    11    44    1
    28    11    45    1
    29    12    14    1
    30    12    15    1
    31    12    16    1
    32    13    17   ar
    33    13    18   ar
    34    14    19   ar
    35    14    21   ar
    36    15    20   ar
    37    15    22   ar
    38    17    23   ar
    39    17    47    1
    40    18    24   ar
    41    18    48    1
    42    19    26   ar
    43    19    49    1
    44    20    27   ar
    45    20    50    1
    46    21    28   ar
    47    21    51    1
    48    22    29   ar
    49    22    52    1
    50    23    25   ar
    51    23    53    1
    52    24    25   ar
    53    24    54    1
    54    25    55    1
    55    26    32   ar
    56    26    56    1
    57    27    33   ar
    58    27    57    1
    59    28    32   ar
    60    28    58    1
    61    29    33   ar
    62    29    59    1
    63    30    60    1
    64    30    61    1
    65    30    62    1
    66    31    63    1
    67    31    64    1
    68    31    65    1
    69    32    66    1
    70    33    67    1
@<TRIPOS>MOLECULE
25130137
 64 67 0 0 0
SMALL
GASTEIGER

@<TRIPOS>ATOM
      1 CL          9.3932   -1.0511    1.3484 Cl      1  UNL1       -0.0835
      2 O           4.0012    1.8645   -1.0125 O.3     1  UNL1       -0.3839
      3 O          -3.4875    0.4002   -2.5190 O.2     1  UNL1       -0.2745
      4 N           0.9556   -0.0501   -0.6880 N.3     1  UNL1       -0.3021
      5 N          -2.6934   -1.7249   -2.0996 N.am    1  UNL1       -0.3174
      6 C           3.8572    0.5454   -0.4651 C.3     1  UNL1        0.0933
      7 C           3.2453   -0.3556   -1.5609 C.3     1  UNL1       -0.0070
      8 C           2.8844    0.5902    0.7360 C.3     1  UNL1       -0.0070
      9 C           1.7921    0.0037   -1.8918 C.3     1  UNL1        0.0018
     10 C           1.4352    0.8891    0.3309 C.3     1  UNL1        0.0018
     11 C          -0.4418    0.2244   -1.0218 C.3     1  UNL1        0.0004
     12 C          -1.3668   -0.3603    0.0616 C.3     1  UNL1       -0.0181
     13 C          -2.9156   -0.1531   -0.1873 C.3     1  UNL1        0.0977
     14 C           5.2588    0.1405   -0.0050 C.ar    1  UNL1       -0.0160
     15 C          -3.4096    1.2778    0.1723 C.ar    1  UNL1       -0.0281
     16 C          -3.7490   -1.1458    0.6779 C.ar    1  UNL1       -0.0281
     17 C          -3.0934   -0.4480   -1.7174 C.2     1  UNL1        0.2277
     18 C           5.8851   -0.9699   -0.5712 C.ar    1  UNL1       -0.0545
     19 C           5.9111    0.8827    0.9794 C.ar    1  UNL1       -0.0545
     20 C          -4.7444    1.6268   -0.0326 C.ar    1  UNL1       -0.0573
     21 C          -4.9517   -1.6564    0.1897 C.ar    1  UNL1       -0.0573
     22 C          -2.5174    2.2117    0.6991 C.ar    1  UNL1       -0.0573
     23 C          -3.2925   -1.5232    1.9407 C.ar    1  UNL1       -0.0573
     24 C           7.1637   -1.3381   -0.1529 C.ar    1  UNL1       -0.0430
     25 C           7.1898    0.5146    1.3978 C.ar    1  UNL1       -0.0430
     26 C           7.8161   -0.5958    0.8316 C.ar    1  UNL1        0.0410
     27 C          -5.1872    2.9099    0.2894 C.ar    1  UNL1       -0.0615
     28 C          -5.6980   -2.5447    0.9644 C.ar    1  UNL1       -0.0615
     29 C          -2.9602    3.4946    1.0213 C.ar    1  UNL1       -0.0615
     30 C          -4.0385   -2.4115    2.7152 C.ar    1  UNL1       -0.0615
     31 C          -4.2951    3.8437    0.8163 C.ar    1  UNL1       -0.0617
     32 C          -5.2413   -2.9221    2.2270 C.ar    1  UNL1       -0.0617
     33 C          -2.7056   -2.1690   -3.4741 C.3     1  UNL1        0.0001
     34 H           3.2578   -1.4067   -1.2429 H       1  UNL1        0.0309
     35 H           3.8283   -0.2777   -2.4877 H       1  UNL1        0.0309
     36 H           3.1852    1.3645    1.4524 H       1  UNL1        0.0309
     37 H           2.9121   -0.3699    1.2698 H       1  UNL1        0.0309
     38 H           1.7386    0.9900   -2.3696 H       1  UNL1        0.0427
     39 H           1.4333   -0.7270   -2.6278 H       1  UNL1        0.0427
     40 H           0.8350    0.8206    1.2439 H       1  UNL1        0.0427
     41 H           1.3539    1.9260   -0.0198 H       1  UNL1        0.0427
     42 H          -0.6147    1.2952   -1.1787 H       1  UNL1        0.0427
     43 H          -0.6540   -0.2585   -1.9794 H       1  UNL1        0.0427
     44 H          -1.1570   -1.4406    0.0986 H       1  UNL1        0.0294
     45 H          -1.0875   -0.0049    1.0578 H       1  UNL1        0.0294
     46 H           3.1239    2.2161   -1.2321 H       1  UNL1        0.2106
     47 H           5.4275   -1.5758   -1.3450 H       1  UNL1        0.0622
     48 H           5.4483    1.7585    1.4251 H       1  UNL1        0.0622
     49 H          -5.4614    0.9362   -0.4626 H       1  UNL1        0.0621
     50 H          -5.3384   -1.3844   -0.7879 H       1  UNL1        0.0621
     51 H          -1.4716    2.0080    0.8867 H       1  UNL1        0.0621
     52 H          -2.3742   -1.1325    2.3655 H       1  UNL1        0.0621
     53 H           7.6410   -2.2045   -0.6037 H       1  UNL1        0.0632
     54 H           7.6873    1.1037    2.1639 H       1  UNL1        0.0632
     55 H          -2.4225   -2.4007   -1.3925 H       1  UNL1        0.1484
     56 H          -6.2252    3.1838    0.1247 H       1  UNL1        0.0618
     57 H          -6.6347   -2.9420    0.5848 H       1  UNL1        0.0618
     58 H          -2.2664    4.2224    1.4320 H       1  UNL1        0.0618
     59 H          -3.6860   -2.7019    3.7006 H       1  UNL1        0.0618
     60 H          -4.6395    4.8430    1.0659 H       1  UNL1        0.0618
     61 H          -5.8230   -3.6126    2.8308 H       1  UNL1        0.0618
     62 H          -3.7140   -2.5132   -3.7167 H       1  UNL1        0.0426
     63 H          -1.9966   -2.9933   -3.5796 H       1  UNL1        0.0426
     64 H          -2.4283   -1.3478   -4.1399 H       1  UNL1        0.0426
@<TRIPOS>BOND
     1     1    26    1
     2     2     6    1
     3     2    46    1
     4     3    17    2
     5     4     9    1
     6     4    10    1
     7     4    11    1
     8     5    17   am
     9     5    33    1
    10     5    55    1
    11     6     7    1
    12     6     8    1
    13     6    14    1
    14     7     9    1
    15     7    34    1
    16     7    35    1
    17     8    10    1
    18     8    36    1
    19     8    37    1
    20     9    38    1
    21     9    39    1
    22    10    40    1
    23    10    41    1
    24    11    12    1
    25    11    42    1
    26    11    43    1
    27    12    13    1
    28    12    44    1
    29    12    45    1
    30    13    15    1
    31    13    16    1
    32    13    17    1
    33    14    18   ar
    34    14    19   ar
    35    15    20   ar
    36    15    22   ar
    37    16    21   ar
    38    16    23   ar
    39    18    24   ar
    40    18    47    1
    41    19    25   ar
    42    19    48    1
    43    20    27   ar
    44    20    49    1
    45    21    28   ar
    46    21    50    1
    47    22    29   ar
    48    22    51    1
    49    23    30   ar
    50    23    52    1
    51    24    26   ar
    52    24    53    1
    53    25    26   ar
    54    25    54    1
    55    27    31   ar
    56    27    56    1
    57    28    32   ar
    58    28    57    1
    59    29    31   ar
    60    29    58    1
    61    30    32   ar
    62    30    59    1
    63    31    60    1
    64    32    61    1
    65    33    62    1
    66    33    63    1
    67    33    64    1
@<TRIPOS>MOLECULE
9912841
 67 70 0 0 0
SMALL
GASTEIGER

@<TRIPOS>ATOM
      1 CL          9.4863    1.4097    0.3868 Cl      1  UNL1       -0.0835
      2 O           3.8280   -1.9095    0.7297 O.3     1  UNL1       -0.3839
      3 O          -4.4042   -0.4860   -2.0520 O.2     1  UNL1       -0.2743
      4 N           0.9732   -0.2168   -0.6960 N.3     1  UNL1       -0.3021
      5 N          -2.8834    1.1154   -2.6417 N.am    1  UNL1       -0.3066
      6 C           3.7970   -0.5999    0.1428 C.3     1  UNL1        0.0933
      7 C           3.3233   -0.7055   -1.3253 C.3     1  UNL1       -0.0070
      8 C           2.7724    0.2462    0.9311 C.3     1  UNL1       -0.0070
      9 C           1.8498   -1.1110   -1.4588 C.3     1  UNL1        0.0018
     10 C           1.3258   -0.2194    0.7280 C.3     1  UNL1        0.0018
     11 C          -0.4283   -0.5939   -0.8780 C.3     1  UNL1        0.0004
     12 C          -1.3407    0.4149   -0.1620 C.3     1  UNL1       -0.0181
     13 C          -2.8894    0.1390   -0.2345 C.3     1  UNL1        0.0979
     14 C           5.2383   -0.0916    0.2059 C.ar    1  UNL1       -0.0160
     15 C          -3.0626   -1.3098    0.3582 C.ar    1  UNL1       -0.0281
     16 C          -3.7366    1.1434    0.6055 C.ar    1  UNL1       -0.0281
     17 C          -3.4414    0.2222   -1.7208 C.2     1  UNL1        0.2300
     18 C           6.2476   -0.7761   -0.4695 C.ar    1  UNL1       -0.0545
     19 C           5.5401    1.0560    0.9375 C.ar    1  UNL1       -0.0545
     20 C          -3.3002   -1.4047    1.6890 C.ar    1  UNL1       -0.0573
     21 C          -5.0814    0.9354    0.6669 C.ar    1  UNL1       -0.0573
     22 C          -2.9596   -2.3450   -0.5102 C.ar    1  UNL1       -0.0573
     23 C          -3.0758    2.1626    1.2219 C.ar    1  UNL1       -0.0573
     24 C           7.5617   -0.3120   -0.4132 C.ar    1  UNL1       -0.0430
     25 C           6.8543    1.5202    0.9936 C.ar    1  UNL1       -0.0430
     26 C           7.8651    0.8361    0.3184 C.ar    1  UNL1        0.0410
     27 C          -3.4531   -2.6878    2.2142 C.ar    1  UNL1       -0.0615
     28 C          -5.8392    1.8340    1.4178 C.ar    1  UNL1       -0.0615
     29 C          -3.1127   -3.6282    0.0148 C.ar    1  UNL1       -0.0615
     30 C          -3.8335    3.0611    1.9730 C.ar    1  UNL1       -0.0615
     31 C          -2.9411    0.7806   -4.0614 C.3     1  UNL1        0.0029
     32 C          -2.3049    2.4232   -2.3595 C.3     1  UNL1        0.0029
     33 C          -3.3594   -3.7996    1.3770 C.ar    1  UNL1       -0.0617
     34 C          -5.2152    2.8968    2.0708 C.ar    1  UNL1       -0.0617
     35 H           3.9130   -1.4502   -1.8736 H       1  UNL1        0.0309
     36 H           3.4721    0.2584   -1.8313 H       1  UNL1        0.0309
     37 H           2.8253    1.2980    0.6191 H       1  UNL1        0.0309
     38 H           2.9911    0.2027    2.0061 H       1  UNL1        0.0309
     39 H           1.7185   -2.1547   -1.1455 H       1  UNL1        0.0427
     40 H           1.5861   -1.0649   -2.5229 H       1  UNL1        0.0427
     41 H           1.1699   -1.2063    1.1812 H       1  UNL1        0.0427
     42 H           0.7403    0.5008    1.3040 H       1  UNL1        0.0427
     43 H          -0.6725   -0.6001   -1.9462 H       1  UNL1        0.0427
     44 H          -0.5597   -1.6087   -0.4944 H       1  UNL1        0.0427
     45 H          -1.0671    1.4173   -0.4936 H       1  UNL1        0.0294
     46 H          -1.1119    0.3785    0.9084 H       1  UNL1        0.0294
     47 H           2.9559   -2.3235    0.6307 H       1  UNL1        0.2106
     48 H           6.0369   -1.6792   -1.0350 H       1  UNL1        0.0622
     49 H           4.7955    1.6203    1.4874 H       1  UNL1        0.0622
     50 H          -3.3349   -0.5724    2.3807 H       1  UNL1        0.0621
     51 H          -5.5850    0.1129    0.1718 H       1  UNL1        0.0621
     52 H          -2.7377   -2.2473   -1.5659 H       1  UNL1        0.0621
     53 H          -2.0109    2.3439    1.1823 H       1  UNL1        0.0621
     54 H           8.3397   -0.8565   -0.9423 H       1  UNL1        0.0632
     55 H           7.0771    2.4154    1.5688 H       1  UNL1        0.0632
     56 H          -3.6342   -2.8224    3.2766 H       1  UNL1        0.0618
     57 H          -6.9149    1.7053    1.4954 H       1  UNL1        0.0618
     58 H          -3.0317   -4.4945   -0.6352 H       1  UNL1        0.0618
     59 H          -3.3486    3.8894    2.4815 H       1  UNL1        0.0618
     60 H          -3.6569    1.4467   -4.5518 H       1  UNL1        0.0428
     61 H          -3.2544   -0.2563   -4.2122 H       1  UNL1        0.0428
     62 H          -1.9481    0.9158   -4.5001 H       1  UNL1        0.0428
     63 H          -2.7391    3.1560   -3.0475 H       1  UNL1        0.0428
     64 H          -1.2251    2.3793   -2.5253 H       1  UNL1        0.0428
     65 H          -2.5286    2.7541   -1.3485 H       1  UNL1        0.0428
     66 H          -3.4741   -4.7989    1.7866 H       1  UNL1        0.0618
     67 H          -5.8051    3.5963    2.6558 H       1  UNL1        0.0618
@<TRIPOS>BOND
     1     1    26    1
     2     2     6    1
     3     2    47    1
     4     3    17    2
     5     4     9    1
     6     4    10    1
     7     4    11    1
     8     5    17   am
     9     5    31    1
    10     5    32    1
    11     6     7    1
    12     6     8    1
    13     6    14    1
    14     7     9    1
    15     7    35    1
    16     7    36    1
    17     8    10    1
    18     8    37    1
    19     8    38    1
    20     9    39    1
    21     9    40    1
    22    10    41    1
    23    10    42    1
    24    11    12    1
    25    11    43    1
    26    11    44    1
    27    12    13    1
    28    12    45    1
    29    12    46    1
    30    13    15    1
    31    13    16    1
    32    13    17    1
    33    14    18   ar
    34    14    19   ar
    35    15    20   ar
    36    15    22   ar
    37    16    21   ar
    38    16    23   ar
    39    18    24   ar
    40    18    48    1
    41    19    25   ar
    42    19    49    1
    43    20    27   ar
    44    20    50    1
    45    21    28   ar
    46    21    51    1
    47    22    29   ar
    48    22    52    1
    49    23    30   ar
    50    23    53    1
    51    24    26   ar
    52    24    54    1
    53    25    26   ar
    54    25    55    1
    55    27    33   ar
    56    27    56    1
    57    28    34   ar
    58    28    57    1
    59    29    33   ar
    60    29    58    1
    61    30    34   ar
    62    30    59    1
    63    31    60    1
    64    31    61    1
    65    31    62    1
    66    32    63    1
    67    32    64    1
    68    32    65    1
    69    33    66    1
    70    34    67    1
