@<TRIPOS>MOLECULE
5360621
 60 65 0 0 0
SMALL
GASTEIGER

@<TRIPOS>ATOM
      1 O           0.6167   -1.2469   -0.7182 O.3     1  UNL1       -0.4811
      2 O          -1.1804   -0.1274    0.8101 O.3     1  UNL1       -0.3377
      3 O           1.2040   -3.9135    0.2696 O.3     1  UNL1       -0.5033
      4 O          -3.2661    0.8879    0.5616 O.3     1  UNL1       -0.3315
      5 O          -2.0881   -2.3243   -0.7178 O.3     1  UNL1       -0.3841
      6 O          -5.0097   -2.6584   -0.5589 O.3     1  UNL1       -0.3864
      7 O          -6.3253   -0.1375   -1.1612 O.3     1  UNL1       -0.3860
      8 O          -6.3787    2.3558   -0.1336 O.3     1  UNL1       -0.4788
      9 O          -4.8809    2.5903    1.5686 O.2     1  UNL1       -0.2480
     10 N           4.6440    2.1004   -1.0253 N.3     1  UNL1       -0.3015
     11 C           2.1641    0.6333   -0.6734 C.3     1  UNL1        0.0480
     12 C           2.5357    1.8496    0.1886 C.3     1  UNL1        0.0064
     13 C           0.6743    0.2223   -0.7334 C.3     1  UNL1        0.1402
     14 C           4.0928    1.8460    0.3277 C.3     1  UNL1        0.0213
     15 C           2.7988    0.7838   -2.0700 C.3     1  UNL1       -0.0263
     16 C           2.6832   -0.5955   -0.0024 C.ar    1  UNL1        0.0116
     17 C           4.6353    0.5533    1.0286 C.3     1  UNL1       -0.0110
     18 C           4.3092    1.0658   -2.0088 C.3     1  UNL1       -0.0001
     19 C          -0.2033    0.8239    0.3953 C.3     1  UNL1        0.1175
     20 C           3.8468   -0.6955    0.7390 C.ar    1  UNL1       -0.0383
     21 C           1.7875    1.8519    1.4971 C.2     1  UNL1       -0.0799
     22 C           1.7853   -1.6324   -0.1189 C.ar    1  UNL1        0.1663
     23 C           0.5417    1.3629    1.5875 C.2     1  UNL1       -0.0556
     24 C           6.0738    2.3921   -1.0245 C.3     1  UNL1       -0.0124
     25 C           4.1546   -1.9472    1.2747 C.ar    1  UNL1       -0.0546
     26 C           2.0710   -2.8788    0.3936 C.ar    1  UNL1        0.1588
     27 C           3.2797   -3.0355    1.0839 C.ar    1  UNL1       -0.0162
     28 C          -2.3542   -0.0538    0.0018 C.3     1  UNL1        0.1893
     29 C          -2.9859   -1.4455   -0.0401 C.3     1  UNL1        0.1342
     30 C          -4.3258   -1.4235   -0.7762 C.3     1  UNL1        0.1145
     31 C          -5.2212   -0.2916   -0.2710 C.3     1  UNL1        0.1201
     32 C          -4.4513    1.0219   -0.2145 C.3     1  UNL1        0.1859
     33 C          -5.2275    2.0661    0.5205 C.2     1  UNL1        0.3367
     34 H           2.2394    2.7754   -0.3277 H       1  UNL1        0.0368
     35 H           0.2344    0.5228   -1.6932 H       1  UNL1        0.0772
     36 H           4.3745    2.7030    0.9553 H       1  UNL1        0.0472
     37 H           2.3076    1.6165   -2.5915 H       1  UNL1        0.0287
     38 H           2.6305   -0.1109   -2.6833 H       1  UNL1        0.0287
     39 H           4.5808    0.7227    2.1126 H       1  UNL1        0.0329
     40 H           5.6914    0.3829    0.7978 H       1  UNL1        0.0329
     41 H           4.8529    0.1359   -1.8007 H       1  UNL1        0.0427
     42 H           4.6284    1.3905   -3.0072 H       1  UNL1        0.0427
     43 H          -0.7116    1.7124   -0.0099 H       1  UNL1        0.0679
     44 H           2.2534    2.2973    2.3706 H       1  UNL1        0.0573
     45 H           0.0179    1.4249    2.5371 H       1  UNL1        0.0596
     46 H           6.6878    1.5168   -0.7905 H       1  UNL1        0.0391
     47 H           6.3104    3.1845   -0.3061 H       1  UNL1        0.0391
     48 H           6.3836    2.7634   -2.0080 H       1  UNL1        0.0391
     49 H           5.0562   -2.0855    1.8654 H       1  UNL1        0.0622
     50 H           3.5362   -4.0006    1.5147 H       1  UNL1        0.0655
     51 H          -2.0911    0.2529   -1.0204 H       1  UNL1        0.0938
     52 H          -3.1150   -1.8433    0.9735 H       1  UNL1        0.0671
     53 H          -4.1673   -1.3420   -1.8589 H       1  UNL1        0.0648
     54 H           0.4258   -3.6029   -0.2254 H       1  UNL1        0.2923
     55 H          -5.6269   -0.5458    0.7168 H       1  UNL1        0.0652
     56 H          -4.2031    1.4164   -1.2077 H       1  UNL1        0.0741
     57 H          -1.9493   -1.9802   -1.6167 H       1  UNL1        0.2101
     58 H          -5.7935   -2.6679   -1.1334 H       1  UNL1        0.2100
     59 H          -6.8681   -0.9414   -1.1008 H       1  UNL1        0.2100
     60 H          -6.9044    3.0390    0.3346 H       1  UNL1        0.2951
@<TRIPOS>BOND
     1     1    13    1
     2     1    22    1
     3     2    19    1
     4     2    28    1
     5     3    26    1
     6     3    54    1
     7     4    28    1
     8     4    32    1
     9     5    29    1
    10     5    57    1
    11     6    30    1
    12     6    58    1
    13     7    31    1
    14     7    59    1
    15     8    33    1
    16     8    60    1
    17     9    33    2
    18    10    14    1
    19    10    18    1
    20    10    24    1
    21    11    12    1
    22    11    13    1
    23    11    15    1
    24    11    16    1
    25    12    14    1
    26    12    21    1
    27    12    34    1
    28    13    19    1
    29    13    35    1
    30    14    17    1
    31    14    36    1
    32    15    18    1
    33    15    37    1
    34    15    38    1
    35    16    20   ar
    36    16    22   ar
    37    17    20    1
    38    17    39    1
    39    17    40    1
    40    18    41    1
    41    18    42    1
    42    19    23    1
    43    19    43    1
    44    20    25   ar
    45    21    23    2
    46    21    44    1
    47    22    26   ar
    48    23    45    1
    49    24    46    1
    50    24    47    1
    51    24    48    1
    52    25    27   ar
    53    25    49    1
    54    26    27   ar
    55    27    50    1
    56    28    29    1
    57    28    51    1
    58    29    30    1
    59    29    52    1
    60    30    31    1
    61    30    53    1
    62    31    32    1
    63    31    55    1
    64    32    33    1
    65    32    56    1
