@<TRIPOS>MOLECULE
4058
 39 40 0 0 0
SMALL
GASTEIGER

@<TRIPOS>ATOM
      1 O          -1.9234   -1.2579    0.3732 O.3     1  UNL1       -0.4643
      2 O          -1.0897   -2.0615   -1.6257 O.2     1  UNL1       -0.2498
      3 N           3.1581   -0.9256    0.2214 N.3     1  UNL1       -0.3052
      4 C           0.2344   -0.5659   -0.2567 C.3     1  UNL1        0.0949
      5 C           1.2868   -0.7726   -1.3787 C.3     1  UNL1       -0.0203
      6 C           0.8300   -1.2027    1.0278 C.3     1  UNL1       -0.0203
      7 C           2.6725   -0.2512   -0.9873 C.3     1  UNL1       -0.0001
      8 C           2.2470   -0.7106    1.3510 C.3     1  UNL1       -0.0001
      9 C          -0.2153    0.8976   -0.1372 C.ar    1  UNL1       -0.0305
     10 C          -0.9863   -1.3896   -0.6084 C.2     1  UNL1        0.3178
     11 C           4.5081   -0.4735    0.5560 C.3     1  UNL1       -0.0128
     12 C          -0.7881    1.5378   -1.2331 C.ar    1  UNL1       -0.0575
     13 C          -0.0479    1.5775    1.0663 C.ar    1  UNL1       -0.0575
     14 C          -1.1962    2.8672   -1.1248 C.ar    1  UNL1       -0.0615
     15 C          -0.4561    2.9068    1.1747 C.ar    1  UNL1       -0.0615
     16 C          -1.0303    3.5517    0.0791 C.ar    1  UNL1       -0.0617
     17 C          -3.1368   -1.9883    0.1671 C.3     1  UNL1        0.0897
     18 C          -4.0667   -1.7393    1.3353 C.3     1  UNL1       -0.0306
     19 H           0.9787   -0.2955   -2.3170 H       1  UNL1        0.0291
     20 H           1.3868   -1.8430   -1.6118 H       1  UNL1        0.0291
     21 H           0.8764   -2.2948    0.8976 H       1  UNL1        0.0291
     22 H           0.1809   -1.0538    1.9001 H       1  UNL1        0.0291
     23 H           3.3570   -0.4538   -1.8203 H       1  UNL1        0.0427
     24 H           2.6435    0.8375   -0.8511 H       1  UNL1        0.0427
     25 H           2.2622    0.3407    1.6517 H       1  UNL1        0.0427
     26 H           2.6055   -1.2841    2.2154 H       1  UNL1        0.0427
     27 H           5.1997   -0.6859   -0.2668 H       1  UNL1        0.0391
     28 H           4.8884   -1.0114    1.4315 H       1  UNL1        0.0391
     29 H           4.5448    0.6012    0.7683 H       1  UNL1        0.0391
     30 H          -0.9344    1.0223   -2.1781 H       1  UNL1        0.0621
     31 H           0.3466    1.1220    1.9648 H       1  UNL1        0.0621
     32 H          -1.6455    3.3687   -1.9770 H       1  UNL1        0.0618
     33 H          -0.3372    3.4375    2.1149 H       1  UNL1        0.0618
     34 H          -1.3509    4.5858    0.1644 H       1  UNL1        0.0618
     35 H          -3.6110   -1.6527   -0.7619 H       1  UNL1        0.0694
     36 H          -2.9110   -3.0579    0.0948 H       1  UNL1        0.0694
     37 H          -5.0068   -2.2837    1.2100 H       1  UNL1        0.0262
     38 H          -3.5983   -2.0530    2.2740 H       1  UNL1        0.0262
     39 H          -4.2864   -0.6708    1.4315 H       1  UNL1        0.0262
@<TRIPOS>BOND
     1     1    10    1
     2     1    17    1
     3     2    10    2
     4     3     7    1
     5     3     8    1
     6     3    11    1
     7     4     5    1
     8     4     6    1
     9     4     9    1
    10     4    10    1
    11     5     7    1
    12     5    19    1
    13     5    20    1
    14     6     8    1
    15     6    21    1
    16     6    22    1
    17     7    23    1
    18     7    24    1
    19     8    25    1
    20     8    26    1
    21     9    12   ar
    22     9    13   ar
    23    11    27    1
    24    11    28    1
    25    11    29    1
    26    12    14   ar
    27    12    30    1
    28    13    15   ar
    29    13    31    1
    30    14    16   ar
    31    14    32    1
    32    15    16   ar
    33    15    33    1
    34    16    34    1
    35    17    18    1
    36    17    35    1
    37    17    36    1
    38    18    37    1
    39    18    38    1
    40    18    39    1
@<TRIPOS>MOLECULE
45359019
 39 40 0 0 0
SMALL
GASTEIGER

@<TRIPOS>ATOM
      1 O          -1.9207   -1.2625    0.3730 O.3     1  UNL1       -0.4643
      2 O          -1.0857   -2.0638   -1.6264 O.2     1  UNL1       -0.2498
      3 N           3.1600   -0.9222    0.2214 N.3     1  UNL1       -0.3052
      4 C           0.2357   -0.5664   -0.2568 C.3     1  UNL1        0.0949
      5 C           0.8321   -1.2025    1.0276 C.3     1  UNL1       -0.0203
      6 C           1.2886   -0.7711   -1.3789 C.3     1  UNL1       -0.0203
      7 C           2.2487   -0.7088    1.3510 C.3     1  UNL1       -0.0001
      8 C           2.6736   -0.2478   -0.9871 C.3     1  UNL1       -0.0001
      9 C          -0.2163    0.8965   -0.1372 C.ar    1  UNL1       -0.0305
     10 C          -0.9836   -1.3919   -0.6089 C.2     1  UNL1        0.3178
     11 C           4.5094   -0.4687    0.5563 C.3     1  UNL1       -0.0128
     12 C          -0.7912    1.5402   -1.2329 C.ar    1  UNL1       -0.0575
     13 C          -0.0523    1.5811    1.0668 C.ar    1  UNL1       -0.0575
     14 C          -1.2021    2.8690   -1.1246 C.ar    1  UNL1       -0.0615
     15 C          -0.4630    2.9097    1.1752 C.ar    1  UNL1       -0.0615
     16 C          -1.0379    3.5537    0.0794 C.ar    1  UNL1       -0.0617
     17 C          -3.1325   -1.9956    0.1669 C.3     1  UNL1        0.0897
     18 C          -4.0628   -1.7490    1.3353 C.3     1  UNL1       -0.0306
     19 H           0.1830   -1.0536    1.8998 H       1  UNL1        0.0291
     20 H           0.8796   -2.2946    0.8977 H       1  UNL1        0.0291
     21 H           1.3902   -1.8411   -1.6126 H       1  UNL1        0.0291
     22 H           0.9797   -0.2937   -2.3167 H       1  UNL1        0.0291
     23 H           2.6077   -1.2819    2.2153 H       1  UNL1        0.0427
     24 H           2.2616    0.3426    1.6517 H       1  UNL1        0.0427
     25 H           2.6431    0.8407   -0.8503 H       1  UNL1        0.0427
     26 H           3.3585   -0.4490   -1.8201 H       1  UNL1        0.0427
     27 H           4.8904   -1.0066    1.4315 H       1  UNL1        0.0391
     28 H           4.5450    0.6059    0.7691 H       1  UNL1        0.0391
     29 H           5.2014   -0.6800   -0.2666 H       1  UNL1        0.0391
     30 H          -0.9363    1.0250   -2.1783 H       1  UNL1        0.0621
     31 H           0.3435    1.1262    1.9654 H       1  UNL1        0.0621
     32 H          -1.6520    3.3697   -1.9770 H       1  UNL1        0.0618
     33 H          -0.3454    3.4405    2.1155 H       1  UNL1        0.0618
     34 H          -1.3604    4.5872    0.1648 H       1  UNL1        0.0618
     35 H          -2.9043   -3.0648    0.0942 H       1  UNL1        0.0694
     36 H          -3.6077   -1.6608   -0.7619 H       1  UNL1        0.0694
     37 H          -5.0017   -2.2955    1.2102 H       1  UNL1        0.0262
     38 H          -4.2849   -0.6811    1.4319 H       1  UNL1        0.0262
     39 H          -3.5935   -2.0619    2.2739 H       1  UNL1        0.0262
@<TRIPOS>BOND
     1     1    10    1
     2     1    17    1
     3     2    10    2
     4     3     7    1
     5     3     8    1
     6     3    11    1
     7     4     5    1
     8     4     6    1
     9     4     9    1
    10     4    10    1
    11     5     7    1
    12     5    19    1
    13     5    20    1
    14     6     8    1
    15     6    21    1
    16     6    22    1
    17     7    23    1
    18     7    24    1
    19     8    25    1
    20     8    26    1
    21     9    12   ar
    22     9    13   ar
    23    11    27    1
    24    11    28    1
    25    11    29    1
    26    12    14   ar
    27    12    30    1
    28    13    15   ar
    29    13    31    1
    30    14    16   ar
    31    14    32    1
    32    15    16   ar
    33    15    33    1
    34    16    34    1
    35    17    18    1
    36    17    35    1
    37    17    36    1
    38    18    37    1
    39    18    38    1
    40    18    39    1
@<TRIPOS>MOLECULE
71749926
 39 40 0 0 0
SMALL
GASTEIGER

@<TRIPOS>ATOM
      1 O           1.9201    1.2630    0.3729 O.3     1  UNL1       -0.4643
      2 O           1.0847    2.0646   -1.6261 O.2     1  UNL1       -0.2498
      3 N          -3.1605    0.9210    0.2216 N.3     1  UNL1       -0.3052
      4 C          -0.2361    0.5662   -0.2570 C.3     1  UNL1        0.0949
      5 C          -1.2891    0.7709   -1.3788 C.3     1  UNL1       -0.0203
      6 C          -0.8326    1.2017    1.0277 C.3     1  UNL1       -0.0203
      7 C          -2.6740    0.2472   -0.9871 C.3     1  UNL1       -0.0001
      8 C          -2.2490    0.7076    1.3511 C.3     1  UNL1       -0.0001
      9 C           0.2164   -0.8964   -0.1377 C.ar    1  UNL1       -0.0305
     10 C           0.9829    1.3924   -0.6089 C.2     1  UNL1        0.3178
     11 C          -4.5097    0.4669    0.5565 C.3     1  UNL1       -0.0128
     12 C           0.0532   -1.5809    1.0666 C.ar    1  UNL1       -0.0575
     13 C           0.7916   -1.5402   -1.2334 C.ar    1  UNL1       -0.0575
     14 C           0.4649   -2.9091    1.1753 C.ar    1  UNL1       -0.0615
     15 C           1.2035   -2.8685   -1.1248 C.ar    1  UNL1       -0.0615
     16 C           1.0401   -3.5529    0.0796 C.ar    1  UNL1       -0.0617
     17 C           3.1316    1.9966    0.1669 C.3     1  UNL1        0.0897
     18 C           4.0621    1.7499    1.3353 C.3     1  UNL1       -0.0306
     19 H          -0.9801    0.2939   -2.3168 H       1  UNL1        0.0291
     20 H          -1.3911    1.8410   -1.6122 H       1  UNL1        0.0291
     21 H          -0.8806    2.2939    0.8981 H       1  UNL1        0.0291
     22 H          -0.1834    1.0530    1.8998 H       1  UNL1        0.0291
     23 H          -3.3589    0.4484   -1.8200 H       1  UNL1        0.0427
     24 H          -2.6431   -0.8414   -0.8506 H       1  UNL1        0.0427
     25 H          -2.2616   -0.3439    1.6516 H       1  UNL1        0.0427
     26 H          -2.6082    1.2803    2.2156 H       1  UNL1        0.0427
     27 H          -5.2019    0.6781   -0.2662 H       1  UNL1        0.0391
     28 H          -4.8907    1.0045    1.4320 H       1  UNL1        0.0391
     29 H          -4.5449   -0.6078    0.7691 H       1  UNL1        0.0391
     30 H          -0.3427   -1.1261    1.9651 H       1  UNL1        0.0621
     31 H           0.9361   -1.0250   -2.1789 H       1  UNL1        0.0621
     32 H           0.3479   -3.4397    2.1158 H       1  UNL1        0.0618
     33 H           1.6536   -3.3692   -1.9770 H       1  UNL1        0.0618
     34 H           1.3634   -4.5862    0.1652 H       1  UNL1        0.0618
     35 H           3.6069    1.6623   -0.7620 H       1  UNL1        0.0694
     36 H           2.9031    3.0657    0.0947 H       1  UNL1        0.0694
     37 H           4.2845    0.6820    1.4315 H       1  UNL1        0.0262
     38 H           5.0008    2.2967    1.2103 H       1  UNL1        0.0262
     39 H           3.5927    2.0624    2.2740 H       1  UNL1        0.0262
@<TRIPOS>BOND
     1     1    10    1
     2     1    17    1
     3     2    10    2
     4     3     7    1
     5     3     8    1
     6     3    11    1
     7     4     5    1
     8     4     6    1
     9     4     9    1
    10     4    10    1
    11     5     7    1
    12     5    19    1
    13     5    20    1
    14     6     8    1
    15     6    21    1
    16     6    22    1
    17     7    23    1
    18     7    24    1
    19     8    25    1
    20     8    26    1
    21     9    12   ar
    22     9    13   ar
    23    11    27    1
    24    11    28    1
    25    11    29    1
    26    12    14   ar
    27    12    30    1
    28    13    15   ar
    29    13    31    1
    30    14    16   ar
    31    14    32    1
    32    15    16   ar
    33    15    33    1
    34    16    34    1
    35    17    18    1
    36    17    35    1
    37    17    36    1
    38    18    37    1
    39    18    38    1
    40    18    39    1
@<TRIPOS>MOLECULE
101106
 33 34 0 0 0
SMALL
GASTEIGER

@<TRIPOS>ATOM
      1 O          -0.1615   -1.7575    1.6738 O.3     1  UNL1       -0.4800
      2 O           1.0306   -2.3884   -0.1639 O.2     1  UNL1       -0.2500
      3 N           3.0094    0.9611   -0.2926 N.3     1  UNL1       -0.3052
      4 C           0.2415   -0.0961    0.0416 C.3     1  UNL1        0.0947
      5 C           0.9217    0.1222   -1.3342 C.3     1  UNL1       -0.0203
      6 C           0.9618    0.8024    1.0795 C.3     1  UNL1       -0.0203
      7 C           2.4518    0.0338   -1.2810 C.3     1  UNL1       -0.0001
      8 C           2.4887    0.6680    1.0459 C.3     1  UNL1       -0.0001
      9 C          -1.2722    0.1547   -0.0628 C.ar    1  UNL1       -0.0305
     10 C           0.4307   -1.5365    0.4747 C.2     1  UNL1        0.3154
     11 C           4.4707    0.9003   -0.2994 C.3     1  UNL1       -0.0128
     12 C          -2.0402   -0.6015   -0.9441 C.ar    1  UNL1       -0.0575
     13 C          -1.8671    1.1371    0.7244 C.ar    1  UNL1       -0.0575
     14 C          -3.4131   -0.3737   -1.0391 C.ar    1  UNL1       -0.0615
     15 C          -3.2400    1.3648    0.6296 C.ar    1  UNL1       -0.0615
     16 C          -4.0130    0.6094   -0.2523 C.ar    1  UNL1       -0.0617
     17 H           0.6426    1.1127   -1.7213 H       1  UNL1        0.0291
     18 H           0.5657   -0.6035   -2.0766 H       1  UNL1        0.0291
     19 H           0.6191    0.6001    2.1023 H       1  UNL1        0.0291
     20 H           0.7389    1.8592    0.8749 H       1  UNL1        0.0291
     21 H           2.7840   -0.9924   -1.0880 H       1  UNL1        0.0427
     22 H           2.8302    0.2976   -2.2770 H       1  UNL1        0.0427
     23 H           2.9051    1.3825    1.7671 H       1  UNL1        0.0427
     24 H           2.7885   -0.3340    1.3790 H       1  UNL1        0.0427
     25 H           4.8623    1.1622   -1.2886 H       1  UNL1        0.0391
     26 H           4.8460   -0.0941   -0.0319 H       1  UNL1        0.0391
     27 H           4.8891    1.6277    0.4053 H       1  UNL1        0.0391
     28 H          -1.5957   -1.3763   -1.5622 H       1  UNL1        0.0621
     29 H          -1.3195    1.7463    1.4338 H       1  UNL1        0.0621
     30 H          -4.0154   -0.9629   -1.7246 H       1  UNL1        0.0618
     31 H          -3.7084    2.1284    1.2438 H       1  UNL1        0.0618
     32 H          -0.0511   -2.6857    1.9712 H       1  UNL1        0.2951
     33 H          -5.0821    0.7861   -0.3254 H       1  UNL1        0.0618
@<TRIPOS>BOND
     1     1    10    1
     2     1    32    1
     3     2    10    2
     4     3     7    1
     5     3     8    1
     6     3    11    1
     7     4     5    1
     8     4     6    1
     9     4     9    1
    10     4    10    1
    11     5     7    1
    12     5    17    1
    13     5    18    1
    14     6     8    1
    15     6    19    1
    16     6    20    1
    17     7    21    1
    18     7    22    1
    19     8    23    1
    20     8    24    1
    21     9    12   ar
    22     9    13   ar
    23    11    25    1
    24    11    26    1
    25    11    27    1
    26    12    14   ar
    27    12    28    1
    28    13    15   ar
    29    13    29    1
    30    14    16   ar
    31    14    30    1
    32    15    16   ar
    33    15    31    1
    34    16    33    1
@<TRIPOS>MOLECULE
551426
 36 37 0 0 0
SMALL
GASTEIGER

@<TRIPOS>ATOM
      1 O          -0.1764    2.0712   -0.7312 O.3     1  UNL1       -0.4673
      2 O           1.0328    1.8542    1.2252 O.2     1  UNL1       -0.2499
      3 N           3.0189   -1.1964   -0.1122 N.3     1  UNL1       -0.3052
      4 C           0.2464   -0.1105    0.0442 C.3     1  UNL1        0.0949
      5 C           0.9310   -0.8972    1.1911 C.3     1  UNL1       -0.0203
      6 C           0.9671   -0.4710   -1.2802 C.3     1  UNL1       -0.0203
      7 C           2.4607   -0.7879    1.1798 C.3     1  UNL1       -0.0001
      8 C           2.4936   -0.3575   -1.1933 C.3     1  UNL1       -0.0001
      9 C          -1.2661   -0.3883    0.0317 C.ar    1  UNL1       -0.0305
     10 C           0.4293    1.3768    0.2739 C.2     1  UNL1        0.3175
     11 C           4.4800   -1.1381   -0.0812 C.3     1  UNL1       -0.0128
     12 C          -2.0345   -0.0889    1.1535 C.ar    1  UNL1       -0.0575
     13 C          -1.8596   -0.9382   -1.1014 C.ar    1  UNL1       -0.0575
     14 C          -3.4063   -0.3414    1.1423 C.ar    1  UNL1       -0.0615
     15 C          -3.2314   -1.1906   -1.1128 C.ar    1  UNL1       -0.0615
     16 C          -4.0048   -0.8923    0.0092 C.ar    1  UNL1       -0.0617
     17 C          -0.0809    3.4961   -0.6385 C.3     1  UNL1        0.0817
     18 H           0.6567   -1.9591    1.1131 H       1  UNL1        0.0291
     19 H           0.5740   -0.5650    2.1743 H       1  UNL1        0.0291
     20 H           0.6213    0.1490   -2.1171 H       1  UNL1        0.0291
     21 H           0.7489   -1.5140   -1.5498 H       1  UNL1        0.0291
     22 H           2.7905    0.2218    1.4485 H       1  UNL1        0.0427
     23 H           2.8422   -1.4543    1.9641 H       1  UNL1        0.0427
     24 H           2.9106   -0.6897   -2.1523 H       1  UNL1        0.0427
     25 H           2.7887    0.6917   -1.0624 H       1  UNL1        0.0427
     26 H           4.8751   -1.7990    0.6983 H       1  UNL1        0.0391
     27 H           4.8510   -0.1238    0.1056 H       1  UNL1        0.0391
     28 H           4.8991   -1.4889   -1.0308 H       1  UNL1        0.0391
     29 H          -1.5910    0.3461    2.0445 H       1  UNL1        0.0621
     30 H          -1.3118   -1.1799   -2.0046 H       1  UNL1        0.0621
     31 H          -4.0088   -0.1076    2.0152 H       1  UNL1        0.0618
     32 H          -3.6988   -1.6170   -1.9957 H       1  UNL1        0.0618
     33 H          -5.0730   -1.0878   -0.0001 H       1  UNL1        0.0618
     34 H          -0.5624    3.8486    0.2786 H       1  UNL1        0.0661
     35 H          -0.6018    3.9281   -1.4971 H       1  UNL1        0.0661
     36 H           0.9674    3.8077   -0.6700 H       1  UNL1        0.0661
@<TRIPOS>BOND
     1     1    10    1
     2     1    17    1
     3     2    10    2
     4     3     7    1
     5     3     8    1
     6     3    11    1
     7     4     5    1
     8     4     6    1
     9     4     9    1
    10     4    10    1
    11     5     7    1
    12     5    18    1
    13     5    19    1
    14     6     8    1
    15     6    20    1
    16     6    21    1
    17     7    22    1
    18     7    23    1
    19     8    24    1
    20     8    25    1
    21     9    12   ar
    22     9    13   ar
    23    11    26    1
    24    11    27    1
    25    11    28    1
    26    12    14   ar
    27    12    29    1
    28    13    15   ar
    29    13    30    1
    30    14    16   ar
    31    14    31    1
    32    15    16   ar
    33    15    32    1
    34    16    33    1
    35    17    34    1
    36    17    35    1
    37    17    36    1
@<TRIPOS>MOLECULE
21067
 40 41 0 0 0
SMALL
GASTEIGER

@<TRIPOS>ATOM
      1 O           3.1875    1.9468    0.6694 O.co2   1  UNL1       -0.7756
      2 O          -0.6734   -1.9583    0.2625 O.3     1  UNL1       -0.4643
      3 O           0.6038   -1.6337   -1.6349 O.2     1  UNL1       -0.2498
      4 N           3.1469    0.6623    0.1904 N.3     1  UNL1        0.2150
      5 C           0.1741    0.2048   -0.1154 C.3     1  UNL1        0.1021
      6 C           1.0162    1.0410   -1.1137 C.3     1  UNL1        0.0074
      7 C           0.9120    0.1792    1.2483 C.3     1  UNL1        0.0074
      8 C           2.4865    0.6289   -1.1678 C.3     1  UNL1       -0.0316
      9 C           2.3793   -0.2308    1.1375 C.3     1  UNL1       -0.0316
     10 C          -1.2597    0.7595   -0.0397 C.ar    1  UNL1       -0.0302
     11 C           0.0778   -1.2259   -0.6082 C.2     1  UNL1        0.3181
     12 C           4.5610    0.1638    0.0705 C.3     1  UNL1       -0.0439
     13 C          -2.0416    0.8147   -1.1901 C.ar    1  UNL1       -0.0575
     14 C          -1.7664    1.2032    1.1784 C.ar    1  UNL1       -0.0575
     15 C          -3.3409    1.3177   -1.1217 C.ar    1  UNL1       -0.0615
     16 C          -3.0656    1.7062    1.2469 C.ar    1  UNL1       -0.0615
     17 C          -3.8528    1.7634    0.0968 C.ar    1  UNL1       -0.0617
     18 C          -0.8470   -3.3361   -0.0834 C.3     1  UNL1        0.0897
     19 C          -1.6975   -4.0067    0.9742 C.3     1  UNL1       -0.0306
     20 H           0.9560    2.1011   -0.8315 H       1  UNL1        0.0331
     21 H           0.6122    0.9759   -2.1317 H       1  UNL1        0.0331
     22 H           0.4224   -0.4923    1.9649 H       1  UNL1        0.0331
     23 H           0.8953    1.1825    1.6944 H       1  UNL1        0.0331
     24 H           2.6352   -0.3792   -1.5645 H       1  UNL1        0.0814
     25 H           3.0507    1.3308   -1.7934 H       1  UNL1        0.0814
     26 H           2.8777   -0.1460    2.1100 H       1  UNL1        0.0814
     27 H           2.4879   -1.2565    0.7679 H       1  UNL1        0.0814
     28 H           4.5352   -0.8613   -0.3075 H       1  UNL1        0.0777
     29 H           5.0877    0.8288   -0.6196 H       1  UNL1        0.0777
     30 H           5.0115    0.2083    1.0659 H       1  UNL1        0.0777
     31 H          -1.6669    0.4665   -2.1483 H       1  UNL1        0.0621
     32 H          -1.2056    1.1739    2.1051 H       1  UNL1        0.0621
     33 H          -3.9547    1.3605   -2.0167 H       1  UNL1        0.0618
     34 H          -3.4660    2.0512    2.1958 H       1  UNL1        0.0618
     35 H          -1.3429   -3.4078   -1.0579 H       1  UNL1        0.0694
     36 H           0.1321   -3.8250   -0.1364 H       1  UNL1        0.0694
     37 H          -4.8648    2.1540    0.1503 H       1  UNL1        0.0618
     38 H          -1.8510   -5.0639    0.7406 H       1  UNL1        0.0262
     39 H          -1.2228   -3.9268    1.9578 H       1  UNL1        0.0262
     40 H          -2.6733   -3.5159    1.0517 H       1  UNL1        0.0262
@<TRIPOS>UNITY_ATOM_ATTR
1 1
charge -1
4 1
charge 1
@<TRIPOS>BOND
     1     1     4    1
     2     2    11    1
     3     2    18    1
     4     3    11    2
     5     4     8    1
     6     4     9    1
     7     4    12    1
     8     5     6    1
     9     5     7    1
    10     5    10    1
    11     5    11    1
    12     6     8    1
    13     6    20    1
    14     6    21    1
    15     7     9    1
    16     7    22    1
    17     7    23    1
    18     8    24    1
    19     8    25    1
    20     9    26    1
    21     9    27    1
    22    10    13   ar
    23    10    14   ar
    24    12    28    1
    25    12    29    1
    26    12    30    1
    27    13    15   ar
    28    13    31    1
    29    14    16   ar
    30    14    32    1
    31    15    17   ar
    32    15    33    1
    33    16    17   ar
    34    16    34    1
    35    17    37    1
    36    18    19    1
    37    18    35    1
    38    18    36    1
    39    19    38    1
    40    19    39    1
    41    19    40    1
