@<TRIPOS>MOLECULE
4095
 50 51 0 0 0
SMALL
GASTEIGER

@<TRIPOS>ATOM
      1 O          -0.6461    0.7684   -2.4420 O.2     1  UNL1       -0.2961
      2 N           2.7800    0.5835    0.5632 N.3     1  UNL1       -0.3056
      3 C          -0.3242    0.3056   -0.0451 C.3     1  UNL1        0.0800
      4 C           0.4024    1.1113    1.0980 C.3     1  UNL1       -0.0171
      5 C           1.8198    1.6634    0.7976 C.3     1  UNL1        0.0085
      6 C          -1.7767   -0.1133    0.3500 C.ar    1  UNL1       -0.0297
      7 C           0.5293   -0.9616   -0.3341 C.ar    1  UNL1       -0.0297
      8 C          -0.5306    1.2304   -1.3034 C.2     1  UNL1        0.1478
      9 C           2.3222    2.5073    1.9726 C.3     1  UNL1       -0.0494
     10 C          -0.7159    2.7298   -1.0694 C.3     1  UNL1        0.0042
     11 C          -2.4936   -0.8250   -0.5619 C.ar    1  UNL1       -0.0573
     12 C           0.2146   -2.1053    0.3400 C.ar    1  UNL1       -0.0573
     13 C          -2.2250    0.2627    1.5786 C.ar    1  UNL1       -0.0573
     14 C           1.5401   -0.8514   -1.2436 C.ar    1  UNL1       -0.0573
     15 C           2.9024   -0.2568    1.7532 C.3     1  UNL1       -0.0128
     16 C           4.0820    1.1317    0.1870 C.3     1  UNL1       -0.0128
     17 C          -1.5765    3.3841   -2.1381 C.3     1  UNL1       -0.0585
     18 C          -3.7905   -1.1986   -0.2094 C.ar    1  UNL1       -0.0615
     19 C           0.9806   -3.2420    0.0811 C.ar    1  UNL1       -0.0615
     20 C          -3.5218   -0.1109    1.9311 C.ar    1  UNL1       -0.0615
     21 C           2.3059   -1.9881   -1.5026 C.ar    1  UNL1       -0.0615
     22 C          -4.3045   -0.8416    1.0372 C.ar    1  UNL1       -0.0617
     23 C           2.0262   -3.1834   -0.8402 C.ar    1  UNL1       -0.0617
     24 H           0.4240    0.5152    2.0182 H       1  UNL1        0.0296
     25 H          -0.1935    1.9889    1.3765 H       1  UNL1        0.0296
     26 H           1.7881    2.2976   -0.0898 H       1  UNL1        0.0460
     27 H           2.3056    1.9859    2.9346 H       1  UNL1        0.0245
     28 H           3.3095    2.9502    1.8198 H       1  UNL1        0.0245
     29 H           1.6460    3.3637    2.0974 H       1  UNL1        0.0245
     30 H          -1.2328    2.8935   -0.1213 H       1  UNL1        0.0339
     31 H           0.2542    3.2267   -1.0496 H       1  UNL1        0.0339
     32 H          -2.1101   -1.1219   -1.5313 H       1  UNL1        0.0621
     33 H          -0.5586   -2.1837    1.0948 H       1  UNL1        0.0621
     34 H          -1.6735    0.8250    2.3180 H       1  UNL1        0.0621
     35 H           1.7648    0.0568   -1.7925 H       1  UNL1        0.0621
     36 H           1.9761   -0.7058    2.1128 H       1  UNL1        0.0391
     37 H           3.3993    0.2334    2.5974 H       1  UNL1        0.0391
     38 H           3.5395   -1.1152    1.5013 H       1  UNL1        0.0391
     39 H           4.6418    1.5817    1.0131 H       1  UNL1        0.0391
     40 H           3.9910    1.8644   -0.6230 H       1  UNL1        0.0391
     41 H           4.7080    0.3225   -0.2083 H       1  UNL1        0.0391
     42 H          -1.1009    3.3165   -3.1222 H       1  UNL1        0.0234
     43 H          -1.7328    4.4426   -1.9082 H       1  UNL1        0.0234
     44 H          -2.5554    2.8978   -2.2051 H       1  UNL1        0.0234
     45 H          -4.3992   -1.7697   -0.9043 H       1  UNL1        0.0618
     46 H           0.7699   -4.1702    0.6043 H       1  UNL1        0.0618
     47 H          -3.9230    0.1659    2.9018 H       1  UNL1        0.0618
     48 H           3.1174   -1.9437   -2.2230 H       1  UNL1        0.0618
     49 H          -5.3139   -1.1332    1.3120 H       1  UNL1        0.0618
     50 H           2.6236   -4.0679   -1.0406 H       1  UNL1        0.0618
@<TRIPOS>BOND
     1     1     8    2
     2     2     5    1
     3     2    15    1
     4     2    16    1
     5     3     4    1
     6     3     6    1
     7     3     7    1
     8     3     8    1
     9     4     5    1
    10     4    24    1
    11     4    25    1
    12     5     9    1
    13     5    26    1
    14     6    11   ar
    15     6    13   ar
    16     7    12   ar
    17     7    14   ar
    18     8    10    1
    19     9    27    1
    20     9    28    1
    21     9    29    1
    22    10    17    1
    23    10    30    1
    24    10    31    1
    25    11    18   ar
    26    11    32    1
    27    12    19   ar
    28    12    33    1
    29    13    20   ar
    30    13    34    1
    31    14    21   ar
    32    14    35    1
    33    15    36    1
    34    15    37    1
    35    15    38    1
    36    16    39    1
    37    16    40    1
    38    16    41    1
    39    17    42    1
    40    17    43    1
    41    17    44    1
    42    18    22   ar
    43    18    45    1
    44    19    23   ar
    45    19    46    1
    46    20    22   ar
    47    20    47    1
    48    21    23   ar
    49    21    48    1
    50    22    49    1
    51    23    50    1
@<TRIPOS>MOLECULE
45039700
 50 51 0 0 0
SMALL
GASTEIGER

@<TRIPOS>ATOM
      1 O          -0.6501   -0.6986    2.4895 O.2     1  UNL1       -0.2961
      2 N           2.8823   -0.4059   -0.9333 N.3     1  UNL1       -0.3056
      3 C          -0.3291   -0.2950    0.0818 C.3     1  UNL1        0.0800
      4 C           0.4821   -1.0758   -1.0209 C.3     1  UNL1       -0.0171
      5 C           1.9360   -1.4941   -0.6813 C.3     1  UNL1        0.0085
      6 C          -1.8052   -0.0161   -0.3481 C.ar    1  UNL1       -0.0297
      7 C           0.4087    1.0500    0.3357 C.ar    1  UNL1       -0.0297
      8 C          -0.4771   -1.1890    1.3703 C.2     1  UNL1        0.1478
      9 C           2.3537   -2.7007   -1.5272 C.3     1  UNL1       -0.0494
     10 C          -0.5305   -2.7060    1.1891 C.3     1  UNL1        0.0042
     11 C          -2.6616    0.6761    0.5079 C.ar    1  UNL1       -0.0573
     12 C           0.0393    2.1926   -0.3738 C.ar    1  UNL1       -0.0573
     13 C          -2.2663   -0.4590   -1.5878 C.ar    1  UNL1       -0.0573
     14 C           1.4396    1.1139    1.2730 C.ar    1  UNL1       -0.0573
     15 C           4.0829   -0.5750   -0.1166 C.3     1  UNL1       -0.0128
     16 C           3.2311   -0.3523   -2.3520 C.3     1  UNL1       -0.0128
     17 C          -0.6662   -3.4460    2.5102 C.3     1  UNL1       -0.0585
     18 C          -3.9795    0.9253    0.1245 C.ar    1  UNL1       -0.0615
     19 C           0.7010    3.3994   -0.1461 C.ar    1  UNL1       -0.0615
     20 C          -3.5840   -0.2098   -1.9713 C.ar    1  UNL1       -0.0615
     21 C           2.1014    2.3205    1.5007 C.ar    1  UNL1       -0.0615
     22 C          -4.4406    0.4823   -1.1152 C.ar    1  UNL1       -0.0617
     23 C           1.7320    3.4632    0.7911 C.ar    1  UNL1       -0.0617
     24 H           0.4842   -0.4836   -1.9459 H       1  UNL1        0.0296
     25 H          -0.0608   -1.9960   -1.2753 H       1  UNL1        0.0296
     26 H           1.9879   -1.7826    0.3732 H       1  UNL1        0.0460
     27 H           1.7740   -3.5758   -1.2065 H       1  UNL1        0.0245
     28 H           3.4026   -2.9852   -1.3952 H       1  UNL1        0.0245
     29 H           2.1377   -2.5888   -2.5957 H       1  UNL1        0.0245
     30 H          -1.3921   -2.9434    0.5565 H       1  UNL1        0.0339
     31 H           0.3706   -3.0794    0.7084 H       1  UNL1        0.0339
     32 H          -2.3263    1.0394    1.4751 H       1  UNL1        0.0621
     33 H          -0.7325    2.1808   -1.1370 H       1  UNL1        0.0621
     34 H          -1.6504   -0.9962   -2.2988 H       1  UNL1        0.0621
     35 H           1.7458    0.2431    1.8444 H       1  UNL1        0.0621
     36 H           4.6580   -1.4722   -0.3691 H       1  UNL1        0.0391
     37 H           4.7445    0.2895   -0.2453 H       1  UNL1        0.0391
     38 H           3.8420   -0.6185    0.9509 H       1  UNL1        0.0391
     39 H           3.7665    0.5877   -2.5378 H       1  UNL1        0.0391
     40 H           2.3569   -0.3121   -3.0100 H       1  UNL1        0.0391
     41 H           3.9052   -1.1483   -2.6892 H       1  UNL1        0.0391
     42 H          -1.5827   -3.1539    3.0334 H       1  UNL1        0.0234
     43 H          -0.7022   -4.5265    2.3396 H       1  UNL1        0.0234
     44 H           0.1814   -3.2313    3.1695 H       1  UNL1        0.0234
     45 H          -4.6459    1.4661    0.7900 H       1  UNL1        0.0618
     46 H           0.4193    4.2875   -0.7043 H       1  UNL1        0.0618
     47 H          -3.9437   -0.5531   -2.9370 H       1  UNL1        0.0618
     48 H           2.9043    2.3703    2.2304 H       1  UNL1        0.0618
     49 H          -5.4664    0.6770   -1.4142 H       1  UNL1        0.0618
     50 H           2.2487    4.4022    0.9669 H       1  UNL1        0.0618
@<TRIPOS>BOND
     1     1     8    2
     2     2     5    1
     3     2    15    1
     4     2    16    1
     5     3     4    1
     6     3     6    1
     7     3     7    1
     8     3     8    1
     9     4     5    1
    10     4    24    1
    11     4    25    1
    12     5     9    1
    13     5    26    1
    14     6    11   ar
    15     6    13   ar
    16     7    12   ar
    17     7    14   ar
    18     8    10    1
    19     9    27    1
    20     9    28    1
    21     9    29    1
    22    10    17    1
    23    10    30    1
    24    10    31    1
    25    11    18   ar
    26    11    32    1
    27    12    19   ar
    28    12    33    1
    29    13    20   ar
    30    13    34    1
    31    14    21   ar
    32    14    35    1
    33    15    36    1
    34    15    37    1
    35    15    38    1
    36    16    39    1
    37    16    40    1
    38    16    41    1
    39    17    42    1
    40    17    43    1
    41    17    44    1
    42    18    22   ar
    43    18    45    1
    44    19    23   ar
    45    19    46    1
    46    20    22   ar
    47    20    47    1
    48    21    23   ar
    49    21    48    1
    50    22    49    1
    51    23    50    1
@<TRIPOS>MOLECULE
101395619
 50 51 0 0 0
SMALL
GASTEIGER

@<TRIPOS>ATOM
      1 O           0.6502   -0.6979   -2.4898 O.2     1  UNL1       -0.2961
      2 N          -2.8819   -0.4066    0.9337 N.3     1  UNL1       -0.3056
      3 C           0.3294   -0.2947   -0.0819 C.3     1  UNL1        0.0800
      4 C          -0.4816   -1.0759    1.0208 C.3     1  UNL1       -0.0171
      5 C          -1.9354   -1.4945    0.6813 C.3     1  UNL1        0.0085
      6 C           1.8053   -0.0154    0.3479 C.ar    1  UNL1       -0.0297
      7 C          -0.4088    1.0501   -0.3356 C.ar    1  UNL1       -0.0297
      8 C           0.4774   -1.1884   -1.3706 C.2     1  UNL1        0.1478
      9 C          -2.3527   -2.7012    1.5270 C.3     1  UNL1       -0.0494
     10 C           0.5312   -2.7055   -1.1896 C.3     1  UNL1        0.0042
     11 C           2.6620    0.6770   -0.5078 C.ar    1  UNL1       -0.0573
     12 C          -0.0401    2.1931    0.3737 C.ar    1  UNL1       -0.0573
     13 C           2.2662   -0.4589    1.5874 C.ar    1  UNL1       -0.0573
     14 C          -1.4400    1.1133   -1.2726 C.ar    1  UNL1       -0.0573
     15 C          -4.0826   -0.5759    0.1170 C.3     1  UNL1       -0.0128
     16 C          -3.2306   -0.3532    2.3524 C.3     1  UNL1       -0.0128
     17 C           0.6668   -3.4453   -2.5108 C.3     1  UNL1       -0.0585
     18 C           3.9798    0.9261   -0.1240 C.ar    1  UNL1       -0.0615
     19 C          -0.7026    3.3993    0.1461 C.ar    1  UNL1       -0.0615
     20 C           3.5838   -0.2099    1.9713 C.ar    1  UNL1       -0.0615
     21 C          -2.1025    2.3194   -1.5004 C.ar    1  UNL1       -0.0615
     22 C           4.4407    0.4827    1.1155 C.ar    1  UNL1       -0.0617
     23 C          -1.7339    3.4625   -0.7911 C.ar    1  UNL1       -0.0617
     24 H          -0.4838   -0.4839    1.9459 H       1  UNL1        0.0296
     25 H           0.0615   -1.9962    1.2750 H       1  UNL1        0.0296
     26 H          -1.9874   -1.7829   -0.3733 H       1  UNL1        0.0460
     27 H          -3.4015   -2.9860    1.3952 H       1  UNL1        0.0245
     28 H          -1.7728   -3.5762    1.2061 H       1  UNL1        0.0245
     29 H          -2.1366   -2.5895    2.5955 H       1  UNL1        0.0245
     30 H           1.3930   -2.9427   -0.5572 H       1  UNL1        0.0339
     31 H          -0.3697   -3.0792   -0.7087 H       1  UNL1        0.0339
     32 H           2.3269    1.0406   -1.4749 H       1  UNL1        0.0621
     33 H           0.7319    2.1818    1.1368 H       1  UNL1        0.0621
     34 H           1.6503   -0.9964    2.2982 H       1  UNL1        0.0621
     35 H          -1.7459    0.2423   -1.8439 H       1  UNL1        0.0621
     36 H          -4.6574   -1.4732    0.3696 H       1  UNL1        0.0391
     37 H          -4.7443    0.2885    0.2460 H       1  UNL1        0.0391
     38 H          -3.8418   -0.6193   -0.9504 H       1  UNL1        0.0391
     39 H          -3.7662    0.5867    2.5384 H       1  UNL1        0.0391
     40 H          -2.3564   -0.3129    3.0103 H       1  UNL1        0.0391
     41 H          -3.9044   -1.1495    2.6896 H       1  UNL1        0.0391
     42 H          -0.1809   -3.2306   -3.1699 H       1  UNL1        0.0234
     43 H           0.7031   -4.5258   -2.3404 H       1  UNL1        0.0234
     44 H           1.5831   -3.1528   -3.0341 H       1  UNL1        0.0234
     45 H           4.6464    1.4671   -0.7892 H       1  UNL1        0.0618
     46 H          -0.4214    4.2877    0.7041 H       1  UNL1        0.0618
     47 H           3.9434   -0.5536    2.9368 H       1  UNL1        0.0618
     48 H          -2.9056    2.3684   -2.2299 H       1  UNL1        0.0618
     49 H           5.4664    0.6773    1.4149 H       1  UNL1        0.0618
     50 H          -2.2511    4.4011   -0.9670 H       1  UNL1        0.0618
@<TRIPOS>BOND
     1     1     8    2
     2     2     5    1
     3     2    15    1
     4     2    16    1
     5     3     4    1
     6     3     6    1
     7     3     7    1
     8     3     8    1
     9     4     5    1
    10     4    24    1
    11     4    25    1
    12     5     9    1
    13     5    26    1
    14     6    11   ar
    15     6    13   ar
    16     7    12   ar
    17     7    14   ar
    18     8    10    1
    19     9    27    1
    20     9    28    1
    21     9    29    1
    22    10    17    1
    23    10    30    1
    24    10    31    1
    25    11    18   ar
    26    11    32    1
    27    12    19   ar
    28    12    33    1
    29    13    20   ar
    30    13    34    1
    31    14    21   ar
    32    14    35    1
    33    15    36    1
    34    15    37    1
    35    15    38    1
    36    16    39    1
    37    16    40    1
    38    16    41    1
    39    17    42    1
    40    17    43    1
    41    17    44    1
    42    18    22   ar
    43    18    45    1
    44    19    23   ar
    45    19    46    1
    46    20    22   ar
    47    20    47    1
    48    21    23   ar
    49    21    48    1
    50    22    49    1
    51    23    50    1
@<TRIPOS>MOLECULE
73425349
 25 26 0 0 0
SMALL
GASTEIGER

@<TRIPOS>ATOM
      1 O          -2.5854   -2.2059    0.5837 O.2     1  UNL1       -0.2793
      2 N          -1.9079   -0.0651   -0.0996 N.am    1  UNL1       -0.2982
      3 N           0.2323    1.9914    0.2522 N.pl3   1  UNL1       -0.3421
      4 C          -2.1398    1.3647    0.0839 C.3     1  UNL1        0.0302
      5 C          -0.8889   -0.5098   -1.0473 C.3     1  UNL1        0.0413
      6 C          -1.0198    2.2623   -0.4225 C.3     1  UNL1        0.0249
      7 C           0.5113   -0.3591   -0.4960 C.ar    1  UNL1       -0.0093
      8 C           0.9771    0.8281    0.1121 C.ar    1  UNL1        0.0319
      9 C           1.3760   -1.4666   -0.6094 C.ar    1  UNL1       -0.0553
     10 C           2.2939    0.8377    0.6181 C.ar    1  UNL1       -0.0405
     11 C          -2.6577   -0.9831    0.6249 C.2     1  UNL1        0.2028
     12 C           2.6753   -1.4237   -0.1098 C.ar    1  UNL1       -0.0613
     13 C           3.1338   -0.2709    0.5097 C.ar    1  UNL1       -0.0600
     14 H          -2.3244    1.5465    1.1499 H       1  UNL1        0.0480
     15 H          -3.0698    1.6045   -0.4449 H       1  UNL1        0.0480
     16 H          -0.9967    0.0375   -1.9900 H       1  UNL1        0.0514
     17 H          -1.0831   -1.5630   -1.2834 H       1  UNL1        0.0514
     18 H          -0.8924    2.1897   -1.5085 H       1  UNL1        0.0477
     19 H          -1.2978    3.3040   -0.2232 H       1  UNL1        0.0477
     20 H           0.6620    2.7625    0.7524 H       1  UNL1        0.1461
     21 H           1.0341   -2.3827   -1.0864 H       1  UNL1        0.0621
     22 H           2.6830    1.7326    1.1018 H       1  UNL1        0.0636
     23 H          -3.3838   -0.4832    1.2877 H       1  UNL1        0.1253
     24 H           3.3236   -2.2897   -0.2024 H       1  UNL1        0.0618
     25 H           4.1440   -0.2283    0.9055 H       1  UNL1        0.0618
@<TRIPOS>BOND
     1     1    11    2
     2     2     4    1
     3     2     5    1
     4     2    11   am
     5     3     6    1
     6     3     8    1
     7     3    20    1
     8     4     6    1
     9     4    14    1
    10     4    15    1
    11     5     7    1
    12     5    16    1
    13     5    17    1
    14     6    18    1
    15     6    19    1
    16     7     8   ar
    17     7     9   ar
    18     8    10   ar
    19     9    12   ar
    20     9    21    1
    21    10    13   ar
    22    10    22    1
    23    11    23    1
    24    12    13   ar
    25    12    24    1
    26    13    25    1
@<TRIPOS>MOLECULE
643985
 50 51 0 0 0
SMALL
GASTEIGER

@<TRIPOS>ATOM
      1 O           0.5742   -0.9085    2.4202 O.2     1  UNL1       -0.2961
      2 N           3.3798   -1.8774   -0.3909 N.3     1  UNL1       -0.3056
      3 C          -0.1366   -0.1884    0.1754 C.3     1  UNL1        0.0800
      4 C           1.0247   -1.0596   -0.4377 C.3     1  UNL1       -0.0171
      5 C           2.4321   -0.9309    0.2001 C.3     1  UNL1        0.0085
      6 C          -1.5185   -0.4792   -0.4934 C.ar    1  UNL1       -0.0297
      7 C           0.2447    1.3049   -0.0314 C.ar    1  UNL1       -0.0297
      8 C          -0.3609   -0.5814    1.6842 C.2     1  UNL1        0.1478
      9 C           2.9791    0.4855    0.0007 C.3     1  UNL1       -0.0494
     10 C          -1.7663   -0.4248    2.2653 C.3     1  UNL1        0.0042
     11 C          -2.4129    0.5446   -0.5547 C.ar    1  UNL1       -0.0573
     12 C           0.3705    1.7556   -1.3129 C.ar    1  UNL1       -0.0573
     13 C          -1.7326   -1.7365   -0.9680 C.ar    1  UNL1       -0.0573
     14 C           0.4305    2.0719    1.0815 C.ar    1  UNL1       -0.0573
     15 C           3.5424   -1.6110   -1.8191 C.3     1  UNL1       -0.0128
     16 C           2.9304   -3.2515   -0.1739 C.3     1  UNL1       -0.0128
     17 C          -1.8437   -0.8457    3.7240 C.3     1  UNL1       -0.0585
     18 C          -3.6465    0.2848   -1.1517 C.ar    1  UNL1       -0.0615
     19 C           0.7128    3.0951   -1.4982 C.ar    1  UNL1       -0.0615
     20 C          -2.9662   -1.9963   -1.5651 C.ar    1  UNL1       -0.0615
     21 C           0.7726    3.4114    0.8962 C.ar    1  UNL1       -0.0615
     22 C          -3.9232   -0.9856   -1.6569 C.ar    1  UNL1       -0.0617
     23 C           0.9138    3.9230   -0.3938 C.ar    1  UNL1       -0.0617
     24 H           1.0513   -0.8988   -1.5204 H       1  UNL1        0.0296
     25 H           0.7364   -2.1001   -0.2808 H       1  UNL1        0.0296
     26 H           2.4300   -1.1293    1.2723 H       1  UNL1        0.0460
     27 H           2.7779    0.9203   -0.9793 H       1  UNL1        0.0245
     28 H           2.6830    1.1496    0.8104 H       1  UNL1        0.0245
     29 H           4.0750    0.4762    0.0999 H       1  UNL1        0.0245
     30 H          -2.0725    0.6226    2.1914 H       1  UNL1        0.0339
     31 H          -2.4726   -1.0645    1.7314 H       1  UNL1        0.0339
     32 H          -2.2547    1.5351   -0.1458 H       1  UNL1        0.0621
     33 H           0.2148    1.1280   -2.1836 H       1  UNL1        0.0621
     34 H          -1.0417   -2.5637   -0.8987 H       1  UNL1        0.0621
     35 H           0.3351    1.7167    2.0995 H       1  UNL1        0.0621
     36 H           3.9210   -0.6091   -2.0399 H       1  UNL1        0.0391
     37 H           2.6494   -1.7989   -2.4228 H       1  UNL1        0.0391
     38 H           4.3149   -2.2857   -2.2110 H       1  UNL1        0.0391
     39 H           2.0938   -3.5569   -0.8114 H       1  UNL1        0.0391
     40 H           2.6639   -3.4276    0.8746 H       1  UNL1        0.0391
     41 H           3.7577   -3.9364   -0.3952 H       1  UNL1        0.0391
     42 H          -1.5467   -1.8924    3.8484 H       1  UNL1        0.0234
     43 H          -2.8654   -0.7328    4.0999 H       1  UNL1        0.0234
     44 H          -1.1828   -0.2326    4.3457 H       1  UNL1        0.0234
     45 H          -4.3953    1.0690   -1.2157 H       1  UNL1        0.0618
     46 H           0.8223    3.4936   -2.5026 H       1  UNL1        0.0618
     47 H          -3.1853   -2.9872   -1.9524 H       1  UNL1        0.0618
     48 H           0.9304    4.0561    1.7559 H       1  UNL1        0.0618
     49 H          -4.8850   -1.1888   -2.1186 H       1  UNL1        0.0618
     50 H           1.1806    4.9658   -0.5382 H       1  UNL1        0.0618
@<TRIPOS>BOND
     1     1     8    2
     2     2     5    1
     3     2    15    1
     4     2    16    1
     5     3     4    1
     6     3     6    1
     7     3     7    1
     8     3     8    1
     9     4     5    1
    10     4    24    1
    11     4    25    1
    12     5     9    1
    13     5    26    1
    14     6    11   ar
    15     6    13   ar
    16     7    12   ar
    17     7    14   ar
    18     8    10    1
    19     9    27    1
    20     9    28    1
    21     9    29    1
    22    10    17    1
    23    10    30    1
    24    10    31    1
    25    11    18   ar
    26    11    32    1
    27    12    19   ar
    28    12    33    1
    29    13    20   ar
    30    13    34    1
    31    14    21   ar
    32    14    35    1
    33    15    36    1
    34    15    37    1
    35    15    38    1
    36    16    39    1
    37    16    40    1
    38    16    41    1
    39    17    42    1
    40    17    43    1
    41    17    44    1
    42    18    22   ar
    43    18    45    1
    44    19    23   ar
    45    19    46    1
    46    20    22   ar
    47    20    47    1
    48    21    23   ar
    49    21    48    1
    50    22    49    1
    51    23    50    1
@<TRIPOS>MOLECULE
6837
 26 27 0 0 0
SMALL
GASTEIGER

@<TRIPOS>ATOM
      1 N           0.0689    3.3711   -0.3598 N.1     1  UNL1       -0.1956
      2 C           0.0275    0.9059    0.6191 C.3     1  UNL1        0.0960
      3 C          -1.2390    0.1733    0.3297 C.ar    1  UNL1       -0.0262
      4 C           1.2836    0.1164    0.2306 C.ar    1  UNL1       -0.0262
      5 C          -1.7033   -0.7954    1.2196 C.ar    1  UNL1       -0.0570
      6 C           1.2686   -0.6043   -0.9395 C.ar    1  UNL1       -0.0570
      7 C          -1.9597    0.4571   -0.8304 C.ar    1  UNL1       -0.0570
      8 C           2.3721    0.1629    1.0682 C.ar    1  UNL1       -0.0570
      9 C          -2.8878   -1.4805    0.9493 C.ar    1  UNL1       -0.0615
     10 C           2.4111   -1.3221   -1.2932 C.ar    1  UNL1       -0.0615
     11 C          -3.1444   -0.2280   -1.1006 C.ar    1  UNL1       -0.0615
     12 C           3.5147   -0.5550    0.7143 C.ar    1  UNL1       -0.0615
     13 C           0.0620    2.2929    0.0698 C.1     1  UNL1        0.0753
     14 C          -3.6083   -1.1968   -0.2107 C.ar    1  UNL1       -0.0617
     15 C           3.5340   -1.2975   -0.4663 C.ar    1  UNL1       -0.0617
     16 H           0.0545    1.0378    1.7124 H       1  UNL1        0.0552
     17 H          -1.1515   -1.0282    2.1267 H       1  UNL1        0.0621
     18 H           0.4229   -0.6299   -1.6163 H       1  UNL1        0.0621
     19 H          -1.6214    1.1909   -1.5563 H       1  UNL1        0.0621
     20 H           2.3660    0.7397    1.9875 H       1  UNL1        0.0621
     21 H          -3.2488   -2.2354    1.6417 H       1  UNL1        0.0618
     22 H           2.4285   -1.8965   -2.2150 H       1  UNL1        0.0618
     23 H          -3.7034   -0.0107   -2.0060 H       1  UNL1        0.0618
     24 H           4.3895   -0.5352    1.3578 H       1  UNL1        0.0618
     25 H          -4.5300   -1.7312   -0.4218 H       1  UNL1        0.0618
     26 H           4.4240   -1.8552   -0.7424 H       1  UNL1        0.0618
@<TRIPOS>BOND
     1     1    13    3
     2     2     3    1
     3     2     4    1
     4     2    13    1
     5     2    16    1
     6     3     5   ar
     7     3     7   ar
     8     4     6   ar
     9     4     8   ar
    10     5     9   ar
    11     5    17    1
    12     6    10   ar
    13     6    18    1
    14     7    11   ar
    15     7    19    1
    16     8    12   ar
    17     8    20    1
    18     9    14   ar
    19     9    21    1
    20    10    15   ar
    21    10    22    1
    22    11    14   ar
    23    11    23    1
    24    12    15   ar
    25    12    24    1
    26    14    25    1
    27    15    26    1
@<TRIPOS>MOLECULE
31331
 43 44 0 0 0
SMALL
GASTEIGER

@<TRIPOS>ATOM
      1 N           2.8916   -1.1427   -0.2283 N.3     1  UNL1       -0.3056
      2 N           0.8025   -0.9965   -2.5361 N.1     1  UNL1       -0.1953
      3 C          -0.1616   -0.2871   -0.1666 C.3     1  UNL1        0.1084
      4 C           0.6764   -1.0458    0.9351 C.3     1  UNL1       -0.0109
      5 C           2.2025   -0.7727    1.0059 C.3     1  UNL1        0.0091
      6 C           0.0207    1.2564   -0.1050 C.ar    1  UNL1       -0.0231
      7 C          -1.6553   -0.6403    0.0354 C.ar    1  UNL1       -0.0231
      8 C           2.8197   -1.5522    2.1710 C.3     1  UNL1       -0.0494
      9 C           0.3744   -0.6965   -1.4991 C.1     1  UNL1        0.0787
     10 C          -0.0298    1.9477   -1.2796 C.ar    1  UNL1       -0.0568
     11 C          -2.3095   -1.2681   -0.9881 C.ar    1  UNL1       -0.0568
     12 C           0.2198    1.8221    1.1200 C.ar    1  UNL1       -0.0568
     13 C          -2.2376   -0.3046    1.2262 C.ar    1  UNL1       -0.0568
     14 C           2.7549   -2.5771   -0.4813 C.3     1  UNL1       -0.0128
     15 C           4.3043   -0.7695   -0.1581 C.3     1  UNL1       -0.0128
     16 C           0.1340    3.3317   -1.2243 C.ar    1  UNL1       -0.0614
     17 C          -3.6553   -1.5862   -0.8061 C.ar    1  UNL1       -0.0614
     18 C           0.3836    3.2063    1.1754 C.ar    1  UNL1       -0.0614
     19 C          -3.5835   -0.6225    1.4081 C.ar    1  UNL1       -0.0614
     20 C           0.3406    3.9611    0.0033 C.ar    1  UNL1       -0.0617
     21 C          -4.2923   -1.2635    0.3921 C.ar    1  UNL1       -0.0617
     22 H           0.4822   -2.1234    0.8413 H       1  UNL1        0.0302
     23 H           0.2799   -0.8249    1.9349 H       1  UNL1        0.0302
     24 H           2.3644    0.2927    1.1979 H       1  UNL1        0.0460
     25 H           2.6343   -2.6299    2.1300 H       1  UNL1        0.0245
     26 H           2.3531   -1.2120    3.1051 H       1  UNL1        0.0245
     27 H           3.8896   -1.3769    2.3097 H       1  UNL1        0.0245
     28 H          -0.2367    1.5153   -2.2512 H       1  UNL1        0.0621
     29 H          -1.8626   -1.5403   -1.9357 H       1  UNL1        0.0621
     30 H           0.2568    1.2796    2.0553 H       1  UNL1        0.0621
     31 H          -1.7209    0.1820    2.0427 H       1  UNL1        0.0621
     32 H           1.7265   -2.9396   -0.5375 H       1  UNL1        0.0391
     33 H           3.3088   -3.2094    0.2209 H       1  UNL1        0.0391
     34 H           3.1780   -2.7938   -1.4711 H       1  UNL1        0.0391
     35 H           4.9096   -1.4073    0.4941 H       1  UNL1        0.0391
     36 H           4.4282    0.2748    0.1503 H       1  UNL1        0.0391
     37 H           4.7421   -0.8419   -1.1609 H       1  UNL1        0.0391
     38 H           0.0892    3.9215   -2.1353 H       1  UNL1        0.0618
     39 H          -4.2080   -2.0854   -1.5968 H       1  UNL1        0.0618
     40 H           0.5431    3.6971    2.1312 H       1  UNL1        0.0618
     41 H          -4.0795   -0.3737    2.3419 H       1  UNL1        0.0618
     42 H           0.4651    5.0391    0.0467 H       1  UNL1        0.0618
     43 H          -5.3400   -1.5117    0.5342 H       1  UNL1        0.0618
@<TRIPOS>BOND
     1     1     5    1
     2     1    14    1
     3     1    15    1
     4     2     9    3
     5     3     4    1
     6     3     6    1
     7     3     7    1
     8     3     9    1
     9     4     5    1
    10     4    22    1
    11     4    23    1
    12     5     8    1
    13     5    24    1
    14     6    10   ar
    15     6    12   ar
    16     7    11   ar
    17     7    13   ar
    18     8    25    1
    19     8    26    1
    20     8    27    1
    21    10    16   ar
    22    10    28    1
    23    11    17   ar
    24    11    29    1
    25    12    18   ar
    26    12    30    1
    27    13    19   ar
    28    13    31    1
    29    14    32    1
    30    14    33    1
    31    14    34    1
    32    15    35    1
    33    15    36    1
    34    15    37    1
    35    16    20   ar
    36    16    38    1
    37    17    21   ar
    38    17    39    1
    39    18    20   ar
    40    18    40    1
    41    19    21   ar
    42    19    41    1
    43    20    42    1
    44    21    43    1
@<TRIPOS>MOLECULE
22267
 50 51 0 0 0
SMALL
GASTEIGER

@<TRIPOS>ATOM
      1 O          -0.6461    0.7684   -2.4420 O.2     1  UNL1       -0.2961
      2 N           2.7800    0.5835    0.5632 N.3     1  UNL1       -0.3056
      3 C          -0.3242    0.3056   -0.0451 C.3     1  UNL1        0.0800
      4 C           0.4024    1.1113    1.0980 C.3     1  UNL1       -0.0171
      5 C           1.8198    1.6634    0.7976 C.3     1  UNL1        0.0085
      6 C          -1.7767   -0.1133    0.3500 C.ar    1  UNL1       -0.0297
      7 C           0.5293   -0.9616   -0.3341 C.ar    1  UNL1       -0.0297
      8 C          -0.5306    1.2304   -1.3034 C.2     1  UNL1        0.1478
      9 C           2.3222    2.5073    1.9726 C.3     1  UNL1       -0.0494
     10 C          -0.7159    2.7298   -1.0694 C.3     1  UNL1        0.0042
     11 C          -2.4936   -0.8250   -0.5619 C.ar    1  UNL1       -0.0573
     12 C           0.2146   -2.1053    0.3400 C.ar    1  UNL1       -0.0573
     13 C          -2.2250    0.2627    1.5786 C.ar    1  UNL1       -0.0573
     14 C           1.5401   -0.8514   -1.2436 C.ar    1  UNL1       -0.0573
     15 C           2.9024   -0.2568    1.7532 C.3     1  UNL1       -0.0128
     16 C           4.0820    1.1317    0.1870 C.3     1  UNL1       -0.0128
     17 C          -1.5765    3.3841   -2.1381 C.3     1  UNL1       -0.0585
     18 C          -3.7905   -1.1986   -0.2094 C.ar    1  UNL1       -0.0615
     19 C           0.9806   -3.2420    0.0811 C.ar    1  UNL1       -0.0615
     20 C          -3.5218   -0.1109    1.9311 C.ar    1  UNL1       -0.0615
     21 C           2.3059   -1.9881   -1.5026 C.ar    1  UNL1       -0.0615
     22 C          -4.3045   -0.8416    1.0372 C.ar    1  UNL1       -0.0617
     23 C           2.0262   -3.1834   -0.8402 C.ar    1  UNL1       -0.0617
     24 H           0.4240    0.5152    2.0182 H       1  UNL1        0.0296
     25 H          -0.1935    1.9889    1.3765 H       1  UNL1        0.0296
     26 H           1.7881    2.2976   -0.0898 H       1  UNL1        0.0460
     27 H           2.3056    1.9859    2.9346 H       1  UNL1        0.0245
     28 H           3.3095    2.9502    1.8198 H       1  UNL1        0.0245
     29 H           1.6460    3.3637    2.0974 H       1  UNL1        0.0245
     30 H          -1.2328    2.8935   -0.1213 H       1  UNL1        0.0339
     31 H           0.2542    3.2267   -1.0496 H       1  UNL1        0.0339
     32 H          -2.1101   -1.1219   -1.5313 H       1  UNL1        0.0621
     33 H          -0.5586   -2.1837    1.0948 H       1  UNL1        0.0621
     34 H          -1.6735    0.8250    2.3180 H       1  UNL1        0.0621
     35 H           1.7648    0.0568   -1.7925 H       1  UNL1        0.0621
     36 H           1.9761   -0.7058    2.1128 H       1  UNL1        0.0391
     37 H           3.3993    0.2334    2.5974 H       1  UNL1        0.0391
     38 H           3.5395   -1.1152    1.5013 H       1  UNL1        0.0391
     39 H           4.6418    1.5817    1.0131 H       1  UNL1        0.0391
     40 H           3.9910    1.8644   -0.6230 H       1  UNL1        0.0391
     41 H           4.7080    0.3225   -0.2083 H       1  UNL1        0.0391
     42 H          -1.1009    3.3165   -3.1222 H       1  UNL1        0.0234
     43 H          -1.7328    4.4426   -1.9082 H       1  UNL1        0.0234
     44 H          -2.5554    2.8978   -2.2051 H       1  UNL1        0.0234
     45 H          -4.3992   -1.7697   -0.9043 H       1  UNL1        0.0618
     46 H           0.7699   -4.1702    0.6043 H       1  UNL1        0.0618
     47 H          -3.9230    0.1659    2.9018 H       1  UNL1        0.0618
     48 H           3.1174   -1.9437   -2.2230 H       1  UNL1        0.0618
     49 H          -5.3139   -1.1332    1.3120 H       1  UNL1        0.0618
     50 H           2.6236   -4.0679   -1.0406 H       1  UNL1        0.0618
@<TRIPOS>BOND
     1     1     8    2
     2     2     5    1
     3     2    15    1
     4     2    16    1
     5     3     4    1
     6     3     6    1
     7     3     7    1
     8     3     8    1
     9     4     5    1
    10     4    24    1
    11     4    25    1
    12     5     9    1
    13     5    26    1
    14     6    11   ar
    15     6    13   ar
    16     7    12   ar
    17     7    14   ar
    18     8    10    1
    19     9    27    1
    20     9    28    1
    21     9    29    1
    22    10    17    1
    23    10    30    1
    24    10    31    1
    25    11    18   ar
    26    11    32    1
    27    12    19   ar
    28    12    33    1
    29    13    20   ar
    30    13    34    1
    31    14    21   ar
    32    14    35    1
    33    15    36    1
    34    15    37    1
    35    15    38    1
    36    16    39    1
    37    16    40    1
    38    16    41    1
    39    17    42    1
    40    17    43    1
    41    17    44    1
    42    18    22   ar
    43    18    45    1
    44    19    23   ar
    45    19    46    1
    46    20    22   ar
    47    20    47    1
    48    21    23   ar
    49    21    48    1
    50    22    49    1
    51    23    50    1
@<TRIPOS>MOLECULE
44861
 43 44 0 0 0
SMALL
GASTEIGER

@<TRIPOS>ATOM
      1 N          -3.4488   -1.5357   -0.2911 N.3     1  UNL1       -0.3080
      2 N           0.0994   -0.6523    3.1013 N.1     1  UNL1       -0.1953
      3 C          -0.9674   -1.1781   -0.1320 C.3     1  UNL1       -0.0045
      4 C           0.1873   -0.2388    0.4735 C.3     1  UNL1        0.1107
      5 C          -2.3868   -0.7830    0.3753 C.3     1  UNL1        0.0029
      6 C          -0.0746    1.2499    0.1053 C.ar    1  UNL1       -0.0229
      7 C           1.6166   -0.5759   -0.0416 C.ar    1  UNL1       -0.0229
      8 C          -0.7186   -2.6808    0.1424 C.3     1  UNL1       -0.0592
      9 C           0.1395   -0.4641    1.9560 C.1     1  UNL1        0.0790
     10 C           0.3045    2.2011    1.0063 C.ar    1  UNL1       -0.0567
     11 C           2.6597   -0.3838    0.8157 C.ar    1  UNL1       -0.0567
     12 C          -0.6664    1.5105   -1.0956 C.ar    1  UNL1       -0.0567
     13 C           1.7358   -1.0425   -1.3173 C.ar    1  UNL1       -0.0567
     14 C          -3.4434   -1.2644   -1.7281 C.3     1  UNL1       -0.0130
     15 C          -4.7506   -1.2038    0.2867 C.3     1  UNL1       -0.0130
     16 C           0.0698    3.5358    0.6761 C.ar    1  UNL1       -0.0614
     17 C           3.9408   -0.6860    0.3542 C.ar    1  UNL1       -0.0614
     18 C          -0.9009    2.8453   -1.4257 C.ar    1  UNL1       -0.0614
     19 C           3.0170   -1.3449   -1.7788 C.ar    1  UNL1       -0.0614
     20 C          -0.5327    3.8580   -0.5398 C.ar    1  UNL1       -0.0617
     21 C           4.1195   -1.1666   -0.9429 C.ar    1  UNL1       -0.0617
     22 H          -0.9493   -1.0949   -1.2174 H       1  UNL1        0.0332
     23 H          -2.5720    0.2905    0.2652 H       1  UNL1        0.0430
     24 H          -2.4409   -0.9939    1.4510 H       1  UNL1        0.0430
     25 H           0.2851   -3.0010   -0.1473 H       1  UNL1        0.0233
     26 H          -1.4196   -3.3023   -0.4253 H       1  UNL1        0.0233
     27 H          -0.8533   -2.9242    1.2015 H       1  UNL1        0.0233
     28 H           0.7924    1.9877    1.9500 H       1  UNL1        0.0621
     29 H           2.5687    0.0146    1.8191 H       1  UNL1        0.0621
     30 H          -0.9348    0.7716   -1.8368 H       1  UNL1        0.0621
     31 H           0.9135   -1.1704   -2.0078 H       1  UNL1        0.0621
     32 H          -2.5967   -1.7347   -2.2358 H       1  UNL1        0.0391
     33 H          -3.4509   -0.1917   -1.9533 H       1  UNL1        0.0391
     34 H          -4.3300   -1.7054   -2.2003 H       1  UNL1        0.0391
     35 H          -4.7684   -1.4348    1.3578 H       1  UNL1        0.0391
     36 H          -5.5417   -1.8060   -0.1740 H       1  UNL1        0.0391
     37 H          -5.0038   -0.1451    0.1574 H       1  UNL1        0.0391
     38 H           0.3609    4.3249    1.3633 H       1  UNL1        0.0618
     39 H           4.8005   -0.5406    1.0020 H       1  UNL1        0.0618
     40 H          -1.3615    3.0976   -2.3765 H       1  UNL1        0.0618
     41 H           3.1576   -1.7129   -2.7909 H       1  UNL1        0.0618
     42 H          -0.7123    4.8974   -0.7983 H       1  UNL1        0.0618
     43 H           5.1173   -1.3991   -1.3033 H       1  UNL1        0.0618
@<TRIPOS>BOND
     1     1     5    1
     2     1    14    1
     3     1    15    1
     4     2     9    3
     5     3     4    1
     6     3     5    1
     7     3     8    1
     8     3    22    1
     9     4     6    1
    10     4     7    1
    11     4     9    1
    12     5    23    1
    13     5    24    1
    14     6    10   ar
    15     6    12   ar
    16     7    11   ar
    17     7    13   ar
    18     8    25    1
    19     8    26    1
    20     8    27    1
    21    10    16   ar
    22    10    28    1
    23    11    17   ar
    24    11    29    1
    25    12    18   ar
    26    12    30    1
    27    13    19   ar
    28    13    31    1
    29    14    32    1
    30    14    33    1
    31    14    34    1
    32    15    35    1
    33    15    36    1
    34    15    37    1
    35    16    20   ar
    36    16    38    1
    37    17    21   ar
    38    17    39    1
    39    18    20   ar
    40    18    40    1
    41    19    21   ar
    42    19    41    1
    43    20    42    1
    44    21    43    1
@<TRIPOS>MOLECULE
407139
 51 52 0 0 0
SMALL
GASTEIGER

@<TRIPOS>ATOM
      1 N           3.5101    1.5083   -0.6788 N.3     1  UNL1       -0.3080
      2 N           0.7146    1.4617    2.0733 N.2     1  UNL1       -0.3071
      3 C          -0.0952    0.1098    0.1288 C.3     1  UNL1        0.0617
      4 C           1.0785    0.8918   -0.6564 C.3     1  UNL1       -0.0123
      5 C           2.5003    0.6433   -0.0689 C.3     1  UNL1        0.0023
      6 C           0.1926   -1.4122   -0.0361 C.ar    1  UNL1       -0.0311
      7 C          -1.5170    0.5525   -0.3507 C.ar    1  UNL1       -0.0311
      8 C          -0.0896    0.5377    1.6485 C.2     1  UNL1        0.0249
      9 C           1.1124    0.6169   -2.1776 C.3     1  UNL1       -0.0598
     10 C          -1.0730   -0.0920    2.6341 C.3     1  UNL1       -0.0166
     11 C          -0.4283   -2.0649   -1.0589 C.ar    1  UNL1       -0.0574
     12 C          -2.5207   -0.3599   -0.2548 C.ar    1  UNL1       -0.0574
     13 C           1.0466   -1.9932    0.8532 C.ar    1  UNL1       -0.0574
     14 C          -1.6483    1.8184   -0.8299 C.ar    1  UNL1       -0.0574
     15 C           4.8357    1.2023   -0.1426 C.3     1  UNL1       -0.0130
     16 C           3.1800    2.9151   -0.4550 C.3     1  UNL1       -0.0130
     17 C          -1.9364    0.9529    3.3217 C.3     1  UNL1       -0.0601
     18 C          -0.1710   -3.4279   -1.2064 C.ar    1  UNL1       -0.0615
     19 C          -3.7883    0.0347   -0.6829 C.ar    1  UNL1       -0.0615
     20 C           1.3040   -3.3561    0.7057 C.ar    1  UNL1       -0.0615
     21 C          -2.9159    2.2131   -1.2578 C.ar    1  UNL1       -0.0615
     22 C           0.6952   -4.0735   -0.3241 C.ar    1  UNL1       -0.0617
     23 C          -3.9860    1.3212   -1.1843 C.ar    1  UNL1       -0.0617
     24 H           0.8870    1.9545   -0.5145 H       1  UNL1        0.0326
     25 H           2.5549    0.7315    1.0163 H       1  UNL1        0.0429
     26 H           2.7898   -0.3875   -0.3047 H       1  UNL1        0.0429
     27 H           1.5169   -0.3760   -2.3994 H       1  UNL1        0.0233
     28 H           0.1207    0.6852   -2.6324 H       1  UNL1        0.0233
     29 H           1.7435    1.3475   -2.6946 H       1  UNL1        0.0233
     30 H          -1.6926   -0.8550    2.1667 H       1  UNL1        0.0322
     31 H          -0.4757   -0.6108    3.3941 H       1  UNL1        0.0322
     32 H          -1.0344   -1.5909   -1.8219 H       1  UNL1        0.0621
     33 H          -2.4408   -1.3470    0.1823 H       1  UNL1        0.0621
     34 H           1.5351   -1.4605    1.6604 H       1  UNL1        0.0621
     35 H          -0.8734    2.5678   -0.8798 H       1  UNL1        0.0621
     36 H           0.5992    1.6219    3.0778 H       1  UNL1        0.1860
     37 H           5.0965    0.1546   -0.3299 H       1  UNL1        0.0391
     38 H           4.9000    1.3866    0.9361 H       1  UNL1        0.0391
     39 H           5.6017    1.8067   -0.6412 H       1  UNL1        0.0391
     40 H           4.0221    3.5542   -0.7489 H       1  UNL1        0.0391
     41 H           2.9549    3.1328    0.5955 H       1  UNL1        0.0391
     42 H           2.3492    3.2508   -1.0826 H       1  UNL1        0.0391
     43 H          -1.3433    1.6314    3.9423 H       1  UNL1        0.0233
     44 H          -2.6694    0.4657    3.9724 H       1  UNL1        0.0233
     45 H          -2.4791    1.5581    2.5884 H       1  UNL1        0.0233
     46 H          -0.6282   -3.9825   -2.0207 H       1  UNL1        0.0618
     47 H          -4.6252   -0.6542   -0.6121 H       1  UNL1        0.0618
     48 H           1.9799   -3.8587    1.3914 H       1  UNL1        0.0618
     49 H          -3.0730    3.2177   -1.6399 H       1  UNL1        0.0618
     50 H           0.8997   -5.1336   -0.4420 H       1  UNL1        0.0618
     51 H          -4.9741    1.6303   -1.5124 H       1  UNL1        0.0618
@<TRIPOS>BOND
     1     1     5    1
     2     1    15    1
     3     1    16    1
     4     2     8    2
     5     2    36    1
     6     3     4    1
     7     3     6    1
     8     3     7    1
     9     3     8    1
    10     4     5    1
    11     4     9    1
    12     4    24    1
    13     5    25    1
    14     5    26    1
    15     6    11   ar
    16     6    13   ar
    17     7    12   ar
    18     7    14   ar
    19     8    10    1
    20     9    27    1
    21     9    28    1
    22     9    29    1
    23    10    17    1
    24    10    30    1
    25    10    31    1
    26    11    18   ar
    27    11    32    1
    28    12    19   ar
    29    12    33    1
    30    13    20   ar
    31    13    34    1
    32    14    21   ar
    33    14    35    1
    34    15    37    1
    35    15    38    1
    36    15    39    1
    37    16    40    1
    38    16    41    1
    39    16    42    1
    40    17    43    1
    41    17    44    1
    42    17    45    1
    43    18    22   ar
    44    18    46    1
    45    19    23   ar
    46    19    47    1
    47    20    22   ar
    48    20    48    1
    49    21    23   ar
    50    21    49    1
    51    22    50    1
    52    23    51    1
@<TRIPOS>MOLECULE
28397
 52 53 0 0 0
SMALL
GASTEIGER

@<TRIPOS>ATOM
      1 O           1.0761    0.2816    2.4584 O.3     1  UNL1       -0.3906
      2 N          -3.1646   -2.0488   -0.6256 N.3     1  UNL1       -0.3056
      3 C           0.1862   -0.0818    0.1473 C.3     1  UNL1        0.0479
      4 C          -0.9078   -0.9915   -0.5564 C.3     1  UNL1       -0.0215
      5 C           0.2738   -0.5966    1.6607 C.3     1  UNL1        0.0686
      6 C          -2.3178   -1.0865    0.0827 C.3     1  UNL1        0.0082
      7 C          -0.3428    1.3858    0.0816 C.ar    1  UNL1       -0.0344
      8 C           1.6118   -0.2310   -0.4655 C.ar    1  UNL1       -0.0344
      9 C           0.7786   -2.0434    1.8613 C.3     1  UNL1       -0.0285
     10 C          -3.0110    0.2790    0.0466 C.3     1  UNL1       -0.0495
     11 C          -0.4654    1.9540   -1.1494 C.ar    1  UNL1       -0.0576
     12 C           2.6186    0.4939    0.0977 C.ar    1  UNL1       -0.0576
     13 C          -0.6461    1.9970    1.2596 C.ar    1  UNL1       -0.0576
     14 C           1.7576   -1.0767   -1.5237 C.ar    1  UNL1       -0.0576
     15 C           0.8428   -2.4266    3.3371 C.3     1  UNL1       -0.0629
     16 C          -2.5550   -3.4029   -0.6324 C.3     1  UNL1       -0.0128
     17 C          -3.4421   -1.5793   -1.9821 C.3     1  UNL1       -0.0128
     18 C          -0.9382    3.2650   -1.2083 C.ar    1  UNL1       -0.0615
     19 C           3.8943    0.3605   -0.4503 C.ar    1  UNL1       -0.0615
     20 C          -1.1190    3.3080    1.2006 C.ar    1  UNL1       -0.0615
     21 C           3.0334   -1.2102   -2.0717 C.ar    1  UNL1       -0.0615
     22 C          -1.2650    3.9420   -0.0334 C.ar    1  UNL1       -0.0617
     23 C           4.1016   -0.4916   -1.5349 C.ar    1  UNL1       -0.0617
     24 H          -0.9953   -0.6720   -1.6008 H       1  UNL1        0.0293
     25 H          -0.4965   -2.0037   -0.5836 H       1  UNL1        0.0293
     26 H          -0.7210   -0.5525    2.1162 H       1  UNL1        0.0605
     27 H          -2.2664   -1.4204    1.1227 H       1  UNL1        0.0460
     28 H           1.7864   -2.1624    1.4499 H       1  UNL1        0.0288
     29 H           0.1241   -2.7546    1.3495 H       1  UNL1        0.0288
     30 H          -2.7757    0.8653    0.9327 H       1  UNL1        0.0245
     31 H          -4.0996    0.1519    0.1392 H       1  UNL1        0.0245
     32 H          -2.8479    0.8514   -0.8683 H       1  UNL1        0.0245
     33 H          -0.2082    1.4425   -2.0700 H       1  UNL1        0.0621
     34 H           2.4857    1.2070    0.9005 H       1  UNL1        0.0621
     35 H          -0.6465    1.5739    2.2504 H       1  UNL1        0.0621
     36 H           0.9691   -1.6465   -1.9947 H       1  UNL1        0.0621
     37 H           0.8481    0.1362    3.3920 H       1  UNL1        0.2098
     38 H          -0.1207   -2.2629    3.8299 H       1  UNL1        0.0231
     39 H           1.0955   -3.4876    3.4347 H       1  UNL1        0.0231
     40 H           1.6114   -1.8585    3.8698 H       1  UNL1        0.0231
     41 H          -3.3174   -4.1302   -0.9339 H       1  UNL1        0.0391
     42 H          -2.2261   -3.6914    0.3717 H       1  UNL1        0.0391
     43 H          -1.7210   -3.5006   -1.3346 H       1  UNL1        0.0391
     44 H          -2.5601   -1.5042   -2.6246 H       1  UNL1        0.0391
     45 H          -3.9993   -0.6391   -2.0214 H       1  UNL1        0.0391
     46 H          -4.1063   -2.3049   -2.4698 H       1  UNL1        0.0391
     47 H          -1.0515    3.7588   -2.1690 H       1  UNL1        0.0618
     48 H           4.7238    0.9302   -0.0415 H       1  UNL1        0.0618
     49 H          -1.3916    3.8306    2.1130 H       1  UNL1        0.0618
     50 H           3.1952   -1.8698   -2.9193 H       1  UNL1        0.0618
     51 H          -1.6373    4.9612   -0.0796 H       1  UNL1        0.0618
     52 H           5.0941   -0.5924   -1.9642 H       1  UNL1        0.0618
@<TRIPOS>BOND
     1     1     5    1
     2     1    37    1
     3     2     6    1
     4     2    16    1
     5     2    17    1
     6     3     4    1
     7     3     5    1
     8     3     7    1
     9     3     8    1
    10     4     6    1
    11     4    24    1
    12     4    25    1
    13     5     9    1
    14     5    26    1
    15     6    10    1
    16     6    27    1
    17     7    11   ar
    18     7    13   ar
    19     8    12   ar
    20     8    14   ar
    21     9    15    1
    22     9    28    1
    23     9    29    1
    24    10    30    1
    25    10    31    1
    26    10    32    1
    27    11    18   ar
    28    11    33    1
    29    12    19   ar
    30    12    34    1
    31    13    20   ar
    32    13    35    1
    33    14    21   ar
    34    14    36    1
    35    15    38    1
    36    15    39    1
    37    15    40    1
    38    16    41    1
    39    16    42    1
    40    16    43    1
    41    17    44    1
    42    17    45    1
    43    17    46    1
    44    18    22   ar
    45    18    47    1
    46    19    23   ar
    47    19    48    1
    48    20    22   ar
    49    20    49    1
    50    21    23   ar
    51    21    50    1
    52    22    51    1
    53    23    52    1
@<TRIPOS>MOLECULE
610077
 51 52 0 0 0
SMALL
GASTEIGER

@<TRIPOS>ATOM
      1 O          -3.4301   -1.9516   -1.0365 O.co2   1  UNL1       -0.7756
      2 O           0.0392   -0.1667    2.5904 O.2     1  UNL1       -0.2961
      3 N          -3.3930   -0.5781   -0.9961 N.3     1  UNL1        0.2148
      4 C           0.3637   -0.1397    0.1631 C.3     1  UNL1        0.0837
      5 C          -2.2879   -0.1316   -0.0998 C.3     1  UNL1       -0.0235
      6 C          -0.9201   -0.6139   -0.6353 C.3     1  UNL1        0.0104
      7 C           1.6897   -0.6074   -0.5026 C.ar    1  UNL1       -0.0296
      8 C           0.4126    1.4163    0.2409 C.ar    1  UNL1       -0.0296
      9 C           0.2021   -0.8258    1.5595 C.2     1  UNL1        0.1480
     10 C          -2.5675   -0.6886    1.2926 C.3     1  UNL1       -0.0216
     11 C          -3.1696   -0.0559   -2.3904 C.3     1  UNL1       -0.0439
     12 C          -4.7131   -0.0704   -0.4805 C.3     1  UNL1       -0.0439
     13 C           0.1469   -2.3539    1.6145 C.3     1  UNL1        0.0042
     14 C           2.7505   -0.8685    0.3139 C.ar    1  UNL1       -0.0573
     15 C          -0.0887    2.1163   -0.8152 C.ar    1  UNL1       -0.0573
     16 C           1.7086   -0.7267   -1.8611 C.ar    1  UNL1       -0.0573
     17 C           0.9537    1.9748    1.3596 C.ar    1  UNL1       -0.0573
     18 C           0.0006   -2.8794    3.0334 C.3     1  UNL1       -0.0585
     19 C           3.9397   -1.2876   -0.2830 C.ar    1  UNL1       -0.0615
     20 C          -0.0446    3.5088   -0.7459 C.ar    1  UNL1       -0.0615
     21 C           2.8975   -1.1458   -2.4581 C.ar    1  UNL1       -0.0615
     22 C           0.9978    3.3673    1.4291 C.ar    1  UNL1       -0.0615
     23 C           4.0131   -1.4261   -1.6690 C.ar    1  UNL1       -0.0617
     24 C           0.4988    4.1342    0.3763 C.ar    1  UNL1       -0.0617
     25 H          -2.3561    0.9604   -0.0762 H       1  UNL1        0.0848
     26 H          -0.9189   -1.7061   -0.7343 H       1  UNL1        0.0336
     27 H          -0.8388   -0.2816   -1.6662 H       1  UNL1        0.0336
     28 H          -2.4189   -1.7642    1.3791 H       1  UNL1        0.0284
     29 H          -2.0429   -0.1352    2.0638 H       1  UNL1        0.0284
     30 H          -3.5984   -0.5298    1.6177 H       1  UNL1        0.0284
     31 H          -4.0914   -0.2207   -2.9569 H       1  UNL1        0.0777
     32 H          -2.9444    1.0115   -2.3322 H       1  UNL1        0.0777
     33 H          -2.3794   -0.6335   -2.8742 H       1  UNL1        0.0777
     34 H          -5.0636   -0.7076    0.3338 H       1  UNL1        0.0777
     35 H          -4.6032    0.9768   -0.1889 H       1  UNL1        0.0777
     36 H          -5.4411   -0.1584   -1.2932 H       1  UNL1        0.0777
     37 H          -0.6643   -2.7578    1.0112 H       1  UNL1        0.0339
     38 H           1.0773   -2.7579    1.2065 H       1  UNL1        0.0339
     39 H           2.7295   -0.7470    1.3909 H       1  UNL1        0.0621
     40 H          -0.4836    1.6834   -1.7233 H       1  UNL1        0.0621
     41 H           0.8877   -0.4943   -2.5239 H       1  UNL1        0.0621
     42 H           1.4504    1.4344    2.1543 H       1  UNL1        0.0621
     43 H          -0.9347   -2.5353    3.4870 H       1  UNL1        0.0234
     44 H           0.8272   -2.5397    3.6663 H       1  UNL1        0.0234
     45 H          -0.0022   -3.9738    3.0358 H       1  UNL1        0.0234
     46 H           4.8102   -1.5003    0.3306 H       1  UNL1        0.0618
     47 H          -0.4237    4.1066   -1.5697 H       1  UNL1        0.0618
     48 H           2.9579   -1.2468   -3.5379 H       1  UNL1        0.0618
     49 H           1.4433    3.8551    2.2914 H       1  UNL1        0.0618
     50 H           4.9397   -1.7494   -2.1341 H       1  UNL1        0.0618
     51 H           0.5403    5.2183    0.4269 H       1  UNL1        0.0618
@<TRIPOS>UNITY_ATOM_ATTR
1 1
charge -1
3 1
charge 1
@<TRIPOS>BOND
     1     1     3    1
     2     2     9    2
     3     3     5    1
     4     3    11    1
     5     3    12    1
     6     4     6    1
     7     4     7    1
     8     4     8    1
     9     4     9    1
    10     5     6    1
    11     5    10    1
    12     5    25    1
    13     6    26    1
    14     6    27    1
    15     7    14   ar
    16     7    16   ar
    17     8    15   ar
    18     8    17   ar
    19     9    13    1
    20    10    28    1
    21    10    29    1
    22    10    30    1
    23    11    31    1
    24    11    32    1
    25    11    33    1
    26    12    34    1
    27    12    35    1
    28    12    36    1
    29    13    18    1
    30    13    37    1
    31    13    38    1
    32    14    19   ar
    33    14    39    1
    34    15    20   ar
    35    15    40    1
    36    16    21   ar
    37    16    41    1
    38    17    22   ar
    39    17    42    1
    40    18    43    1
    41    18    44    1
    42    18    45    1
    43    19    23   ar
    44    19    46    1
    45    20    24   ar
    46    20    47    1
    47    21    23   ar
    48    21    48    1
    49    22    24   ar
    50    22    49    1
    51    23    50    1
    52    24    51    1
@<TRIPOS>MOLECULE
21435
 51 52 0 0 0
SMALL
GASTEIGER

@<TRIPOS>ATOM
      1 N           3.3408    1.8411   -0.4181 N.3     1  UNL1       -0.3056
      2 N          -0.2485    1.2822    2.4762 N.2     1  UNL1       -0.3071
      3 C          -0.2221    0.1775    0.2450 C.3     1  UNL1        0.0594
      4 C           0.9183    1.1956   -0.1922 C.3     1  UNL1       -0.0187
      5 C           2.3974    0.9049    0.1842 C.3     1  UNL1        0.0085
      6 C           0.1993   -1.2090   -0.3096 C.ar    1  UNL1       -0.0313
      7 C          -1.5939    0.6632   -0.3338 C.ar    1  UNL1       -0.0313
      8 C          -0.4240    0.1927    1.7969 C.2     1  UNL1        0.0246
      9 C           2.5675    0.9764    1.7051 C.3     1  UNL1       -0.0494
     10 C          -0.8833   -1.0633    2.5347 C.3     1  UNL1       -0.0166
     11 C          -0.2132   -1.5445   -1.5678 C.ar    1  UNL1       -0.0574
     12 C          -2.6808   -0.1185   -0.0994 C.ar    1  UNL1       -0.0574
     13 C           0.9578   -2.0127    0.4928 C.ar    1  UNL1       -0.0574
     14 C          -1.5982    1.8309   -1.0291 C.ar    1  UNL1       -0.0574
     15 C           3.2266    1.8193   -1.8771 C.3     1  UNL1       -0.0128
     16 C           4.7104    1.5251   -0.0105 C.3     1  UNL1       -0.0128
     17 C          -2.2015   -0.8443    3.2583 C.3     1  UNL1       -0.0601
     18 C           0.1653   -2.7910   -2.0662 C.ar    1  UNL1       -0.0615
     19 C          -3.9026    0.3138   -0.6154 C.ar    1  UNL1       -0.0615
     20 C           1.3365   -3.2592   -0.0056 C.ar    1  UNL1       -0.0615
     21 C          -2.8199    2.2634   -1.5450 C.ar    1  UNL1       -0.0615
     22 C           0.9402   -3.6484   -1.2852 C.ar    1  UNL1       -0.0617
     23 C          -3.9721    1.5048   -1.3381 C.ar    1  UNL1       -0.0617
     24 H           0.6963    2.2021    0.1894 H       1  UNL1        0.0296
     25 H           0.8798    1.2260   -1.2867 H       1  UNL1        0.0296
     26 H           2.6616   -0.1060   -0.1444 H       1  UNL1        0.0460
     27 H           1.9676    0.2348    2.2279 H       1  UNL1        0.0245
     28 H           2.3331    1.9723    2.0970 H       1  UNL1        0.0245
     29 H           3.5785    0.7194    2.0358 H       1  UNL1        0.0245
     30 H          -0.1112   -1.3489    3.2574 H       1  UNL1        0.0322
     31 H          -1.0513   -1.9023    1.8605 H       1  UNL1        0.0322
     32 H          -0.7867   -0.8910   -2.2148 H       1  UNL1        0.0621
     33 H          -2.6449   -1.0670    0.4195 H       1  UNL1        0.0621
     34 H           1.3336   -1.7334    1.4672 H       1  UNL1        0.0621
     35 H          -0.7617    2.4827   -1.2315 H       1  UNL1        0.0621
     36 H           3.2715    0.8041   -2.2881 H       1  UNL1        0.0391
     37 H           4.0380    2.3976   -2.3362 H       1  UNL1        0.0391
     38 H           2.3133    2.3134   -2.2216 H       1  UNL1        0.0391
     39 H           5.4306    2.0911   -0.6150 H       1  UNL1        0.0391
     40 H           4.9546    0.4628   -0.1268 H       1  UNL1        0.0391
     41 H           4.9199    1.8437    1.0151 H       1  UNL1        0.0391
     42 H          -2.5864   -1.7962    3.6383 H       1  UNL1        0.0233
     43 H          -2.0696   -0.1799    4.1189 H       1  UNL1        0.0233
     44 H          -2.9661   -0.3956    2.6206 H       1  UNL1        0.0233
     45 H          -0.4211    1.1263    3.4737 H       1  UNL1        0.1860
     46 H          -0.1359   -3.0910   -3.0658 H       1  UNL1        0.0618
     47 H          -4.7978   -0.2819   -0.4631 H       1  UNL1        0.0618
     48 H           1.9509   -3.9219    0.5971 H       1  UNL1        0.0618
     49 H          -2.8760    3.1912   -2.1073 H       1  UNL1        0.0618
     50 H           1.2391   -4.6170   -1.6751 H       1  UNL1        0.0618
     51 H          -4.9229    1.8403   -1.7416 H       1  UNL1        0.0618
@<TRIPOS>BOND
     1     1     5    1
     2     1    15    1
     3     1    16    1
     4     2     8    2
     5     2    45    1
     6     3     4    1
     7     3     6    1
     8     3     7    1
     9     3     8    1
    10     4     5    1
    11     4    24    1
    12     4    25    1
    13     5     9    1
    14     5    26    1
    15     6    11   ar
    16     6    13   ar
    17     7    12   ar
    18     7    14   ar
    19     8    10    1
    20     9    27    1
    21     9    28    1
    22     9    29    1
    23    10    17    1
    24    10    30    1
    25    10    31    1
    26    11    18   ar
    27    11    32    1
    28    12    19   ar
    29    12    33    1
    30    13    20   ar
    31    13    34    1
    32    14    21   ar
    33    14    35    1
    34    15    36    1
    35    15    37    1
    36    15    38    1
    37    16    39    1
    38    16    40    1
    39    16    41    1
    40    17    42    1
    41    17    43    1
    42    17    44    1
    43    18    22   ar
    44    18    46    1
    45    19    23   ar
    46    19    47    1
    47    20    22   ar
    48    20    48    1
    49    21    23   ar
    50    21    49    1
    51    22    50    1
    52    23    51    1
@<TRIPOS>MOLECULE
11832763
 43 44 0 0 0
SMALL
GASTEIGER

@<TRIPOS>ATOM
      1 N           2.8917   -1.1427   -0.2283 N.3     1  UNL1       -0.3056
      2 N           0.8027   -0.9961   -2.5361 N.1     1  UNL1       -0.1953
      3 C          -0.1615   -0.2869   -0.1666 C.3     1  UNL1        0.1084
      4 C           0.6765   -1.0459    0.9350 C.3     1  UNL1       -0.0109
      5 C           2.2026   -0.7728    1.0059 C.3     1  UNL1        0.0091
      6 C           0.0209    1.2566   -0.1047 C.ar    1  UNL1       -0.0231
      7 C          -1.6552   -0.6401    0.0354 C.ar    1  UNL1       -0.0231
      8 C           2.8196   -1.5525    2.1709 C.3     1  UNL1       -0.0494
      9 C           0.3746   -0.6962   -1.4992 C.1     1  UNL1        0.0787
     10 C          -0.0294    1.9479   -1.2795 C.ar    1  UNL1       -0.0568
     11 C          -2.3092   -1.2679   -0.9884 C.ar    1  UNL1       -0.0568
     12 C           0.2193    1.8226    1.1204 C.ar    1  UNL1       -0.0568
     13 C          -2.2377   -0.3053    1.2265 C.ar    1  UNL1       -0.0568
     14 C           2.7549   -2.5771   -0.4815 C.3     1  UNL1       -0.0128
     15 C           4.3045   -0.7697   -0.1581 C.3     1  UNL1       -0.0128
     16 C           0.1339    3.3321   -1.2242 C.ar    1  UNL1       -0.0614
     17 C          -3.6550   -1.5863   -0.8066 C.ar    1  UNL1       -0.0614
     18 C           0.3825    3.2068    1.1758 C.ar    1  UNL1       -0.0614
     19 C          -3.5835   -0.6238    1.4082 C.ar    1  UNL1       -0.0614
     20 C           0.3398    3.9615    0.0034 C.ar    1  UNL1       -0.0617
     21 C          -4.2921   -1.2644    0.3917 C.ar    1  UNL1       -0.0617
     22 H           0.4821   -2.1234    0.8411 H       1  UNL1        0.0302
     23 H           0.2800   -0.8248    1.9348 H       1  UNL1        0.0302
     24 H           2.3645    0.2926    1.1980 H       1  UNL1        0.0460
     25 H           2.6343   -2.6302    2.1298 H       1  UNL1        0.0245
     26 H           2.3531   -1.2124    3.1051 H       1  UNL1        0.0245
     27 H           3.8895   -1.3775    2.3096 H       1  UNL1        0.0245
     28 H          -0.2359    1.5155   -2.2511 H       1  UNL1        0.0621
     29 H          -1.8624   -1.5395   -1.9362 H       1  UNL1        0.0621
     30 H           0.2561    1.2800    2.0556 H       1  UNL1        0.0621
     31 H          -1.7211    0.1811    2.0432 H       1  UNL1        0.0621
     32 H           1.7264   -2.9395   -0.5377 H       1  UNL1        0.0391
     33 H           3.3088   -3.2096    0.2205 H       1  UNL1        0.0391
     34 H           3.1779   -2.7936   -1.4714 H       1  UNL1        0.0391
     35 H           4.9097   -1.4076    0.4941 H       1  UNL1        0.0391
     36 H           4.4284    0.2747    0.1504 H       1  UNL1        0.0391
     37 H           4.7423   -0.8420   -1.1609 H       1  UNL1        0.0391
     38 H           0.0893    3.9219   -2.1353 H       1  UNL1        0.0618
     39 H          -4.2075   -2.0852   -1.5975 H       1  UNL1        0.0618
     40 H           0.5413    3.6978    2.1315 H       1  UNL1        0.0618
     41 H          -4.0795   -0.3758    2.3421 H       1  UNL1        0.0618
     42 H           0.4639    5.0396    0.0469 H       1  UNL1        0.0618
     43 H          -5.3398   -1.5130    0.5335 H       1  UNL1        0.0618
@<TRIPOS>BOND
     1     1     5    1
     2     1    14    1
     3     1    15    1
     4     2     9    3
     5     3     4    1
     6     3     6    1
     7     3     7    1
     8     3     9    1
     9     4     5    1
    10     4    22    1
    11     4    23    1
    12     5     8    1
    13     5    24    1
    14     6    10   ar
    15     6    12   ar
    16     7    11   ar
    17     7    13   ar
    18     8    25    1
    19     8    26    1
    20     8    27    1
    21    10    16   ar
    22    10    28    1
    23    11    17   ar
    24    11    29    1
    25    12    18   ar
    26    12    30    1
    27    13    19   ar
    28    13    31    1
    29    14    32    1
    30    14    33    1
    31    14    34    1
    32    15    35    1
    33    15    36    1
    34    15    37    1
    35    16    20   ar
    36    16    38    1
    37    17    21   ar
    38    17    39    1
    39    18    20   ar
    40    18    40    1
    41    19    21   ar
    42    19    41    1
    43    20    42    1
    44    21    43    1
@<TRIPOS>MOLECULE
10072
 50 51 0 0 0
SMALL
GASTEIGER

@<TRIPOS>ATOM
      1 O           1.2662    1.8480    1.8909 O.2     1  UNL1       -0.2961
      2 N          -1.9988   -3.0451   -0.1547 N.3     1  UNL1       -0.3080
      3 C           0.1380    0.2003    0.4378 C.3     1  UNL1        0.0823
      4 C          -0.6939   -1.1218    0.7812 C.3     1  UNL1       -0.0107
      5 C          -1.1036   -1.9350   -0.4816 C.3     1  UNL1        0.0024
      6 C          -0.5881    1.2008   -0.5211 C.ar    1  UNL1       -0.0295
      7 C           1.5151   -0.2553   -0.1457 C.ar    1  UNL1       -0.0295
      8 C           0.3136    1.0763    1.7474 C.2     1  UNL1        0.1481
      9 C           0.0197   -2.0738    1.7697 C.3     1  UNL1       -0.0597
     10 C          -0.8037    1.0383    2.7938 C.3     1  UNL1        0.0042
     11 C           0.1921    1.9987   -1.2981 C.ar    1  UNL1       -0.0573
     12 C           1.6361   -0.3016   -1.4999 C.ar    1  UNL1       -0.0573
     13 C          -1.9480    1.2012   -0.5100 C.ar    1  UNL1       -0.0573
     14 C           2.4961   -0.5733    0.7414 C.ar    1  UNL1       -0.0573
     15 C          -2.3184   -3.8140   -1.3567 C.3     1  UNL1       -0.0130
     16 C          -3.2214   -2.5470    0.4740 C.3     1  UNL1       -0.0130
     17 C          -0.5001    1.9158    3.9977 C.3     1  UNL1       -0.0585
     18 C          -0.4552    2.8906   -2.1532 C.ar    1  UNL1       -0.0615
     19 C           2.8646   -0.7078   -2.0207 C.ar    1  UNL1       -0.0615
     20 C          -2.5952    2.0930   -1.3653 C.ar    1  UNL1       -0.0615
     21 C           3.7246   -0.9795    0.2206 C.ar    1  UNL1       -0.0615
     22 C          -1.8487    2.9378   -2.1869 C.ar    1  UNL1       -0.0617
     23 C           3.9089   -1.0467   -1.1604 C.ar    1  UNL1       -0.0617
     24 H          -1.6021   -0.7986    1.2906 H       1  UNL1        0.0326
     25 H          -1.5654   -1.2943   -1.2395 H       1  UNL1        0.0429
     26 H          -0.1985   -2.3537   -0.9379 H       1  UNL1        0.0429
     27 H           0.4733   -1.5479    2.6130 H       1  UNL1        0.0233
     28 H           0.7960   -2.6684    1.2772 H       1  UNL1        0.0233
     29 H          -0.6938   -2.7847    2.2014 H       1  UNL1        0.0233
     30 H          -1.7337    1.3831    2.3343 H       1  UNL1        0.0339
     31 H          -0.9442    0.0241    3.1685 H       1  UNL1        0.0339
     32 H           1.2701    2.0867   -1.2269 H       1  UNL1        0.0621
     33 H           0.8287   -0.1621   -2.2095 H       1  UNL1        0.0621
     34 H          -2.5661    0.5832    0.1257 H       1  UNL1        0.0621
     35 H           2.3832   -0.5310    1.8178 H       1  UNL1        0.0621
     36 H          -1.4058   -4.2111   -1.8152 H       1  UNL1        0.0391
     37 H          -2.8474   -3.2129   -2.1052 H       1  UNL1        0.0391
     38 H          -2.9422   -4.6794   -1.1062 H       1  UNL1        0.0391
     39 H          -3.9565   -3.3564    0.5650 H       1  UNL1        0.0391
     40 H          -3.6922   -1.7416   -0.1012 H       1  UNL1        0.0391
     41 H          -3.0553   -2.2111    1.5015 H       1  UNL1        0.0391
     42 H          -0.3828    2.9635    3.7016 H       1  UNL1        0.0234
     43 H          -1.3143    1.8576    4.7267 H       1  UNL1        0.0234
     44 H           0.4249    1.5997    4.4914 H       1  UNL1        0.0234
     45 H           0.1253    3.5676   -2.7733 H       1  UNL1        0.0618
     46 H           3.0006   -0.7859   -3.0955 H       1  UNL1        0.0618
     47 H          -3.6803    2.1351   -1.3870 H       1  UNL1        0.0618
     48 H           4.5376   -1.2450    0.8902 H       1  UNL1        0.0618
     49 H          -2.3525    3.6375   -2.8472 H       1  UNL1        0.0618
     50 H           4.8635   -1.3691   -1.5658 H       1  UNL1        0.0618
@<TRIPOS>BOND
     1     1     8    2
     2     2     5    1
     3     2    15    1
     4     2    16    1
     5     3     4    1
     6     3     6    1
     7     3     7    1
     8     3     8    1
     9     4     5    1
    10     4     9    1
    11     4    24    1
    12     5    25    1
    13     5    26    1
    14     6    11   ar
    15     6    13   ar
    16     7    12   ar
    17     7    14   ar
    18     8    10    1
    19     9    27    1
    20     9    28    1
    21     9    29    1
    22    10    17    1
    23    10    30    1
    24    10    31    1
    25    11    18   ar
    26    11    32    1
    27    12    19   ar
    28    12    33    1
    29    13    20   ar
    30    13    34    1
    31    14    21   ar
    32    14    35    1
    33    15    36    1
    34    15    37    1
    35    15    38    1
    36    16    39    1
    37    16    40    1
    38    16    41    1
    39    17    42    1
    40    17    43    1
    41    17    44    1
    42    18    22   ar
    43    18    45    1
    44    19    23   ar
    45    19    46    1
    46    20    22   ar
    47    20    47    1
    48    21    23   ar
    49    21    48    1
    50    22    49    1
    51    23    50    1
@<TRIPOS>MOLECULE
5352621
 44 46 0 0 0
SMALL
GASTEIGER

@<TRIPOS>ATOM
      1 N          -1.1225    2.3989   -0.0106 N.pl3   1  UNL1       -0.3326
      2 C          -0.0036    0.2927    0.3140 C.3     1  UNL1        0.0597
      3 C          -0.4289    0.9514    1.6846 C.3     1  UNL1       -0.0157
      4 C          -1.4699    2.0358    1.3555 C.3     1  UNL1        0.0216
      5 C          -0.2694    1.4953   -0.6354 C.2     1  UNL1        0.0173
      6 C          -0.9510   -0.9113    0.0544 C.ar    1  UNL1       -0.0313
      7 C           1.4979   -0.1018    0.3032 C.ar    1  UNL1       -0.0313
      8 C          -2.9109    1.5510    1.4537 C.3     1  UNL1       -0.0465
      9 C          -1.5778    3.6620   -0.5552 C.3     1  UNL1        0.0007
     10 C           0.2897    1.6374   -1.8504 C.2     1  UNL1       -0.0690
     11 C          -0.9397   -2.0055    0.9188 C.ar    1  UNL1       -0.0574
     12 C           1.8651   -1.4260    0.0754 C.ar    1  UNL1       -0.0574
     13 C          -1.8122   -0.8965   -1.0423 C.ar    1  UNL1       -0.0574
     14 C           2.4718    0.8698    0.5207 C.ar    1  UNL1       -0.0574
     15 C           1.2394    0.6576   -2.4461 C.3     1  UNL1       -0.0451
     16 C          -1.7902   -3.0862    0.6861 C.ar    1  UNL1       -0.0615
     17 C           3.2141   -1.7806    0.0654 C.ar    1  UNL1       -0.0615
     18 C          -2.6629   -1.9772   -1.2748 C.ar    1  UNL1       -0.0615
     19 C           3.8208    0.5152    0.5105 C.ar    1  UNL1       -0.0615
     20 C          -2.6518   -3.0721   -0.4105 C.ar    1  UNL1       -0.0617
     21 C           4.1919   -0.8101    0.2829 C.ar    1  UNL1       -0.0617
     22 H           0.4290    1.4501    2.1550 H       1  UNL1        0.0298
     23 H          -0.7989    0.2399    2.4308 H       1  UNL1        0.0298
     24 H          -1.3309    2.8862    2.0344 H       1  UNL1        0.0497
     25 H          -3.1461    0.7628    0.7360 H       1  UNL1        0.0248
     26 H          -3.1221    1.1711    2.4586 H       1  UNL1        0.0248
     27 H          -3.6059    2.3746    1.2572 H       1  UNL1        0.0248
     28 H          -2.2736    4.1669    0.1232 H       1  UNL1        0.0428
     29 H          -2.0973    3.5062   -1.5063 H       1  UNL1        0.0428
     30 H          -0.7300    4.3346   -0.7218 H       1  UNL1        0.0428
     31 H           0.0802    2.5245   -2.4417 H       1  UNL1        0.0585
     32 H          -0.2954   -2.0322    1.7938 H       1  UNL1        0.0621
     33 H           1.1817   -2.2247   -0.1755 H       1  UNL1        0.0621
     34 H          -1.8690   -0.0732   -1.7447 H       1  UNL1        0.0621
     35 H           2.2106    1.9091    0.6996 H       1  UNL1        0.0621
     36 H           1.1545    0.7391   -3.5378 H       1  UNL1        0.0272
     37 H           0.9988   -0.3853   -2.2381 H       1  UNL1        0.0272
     38 H           2.2797    0.8956   -2.2146 H       1  UNL1        0.0272
     39 H          -1.7856   -3.9364    1.3620 H       1  UNL1        0.0618
     40 H           3.5053   -2.8088   -0.1288 H       1  UNL1        0.0618
     41 H          -3.3353   -1.9664   -2.1277 H       1  UNL1        0.0618
     42 H           4.5824    1.2711    0.6782 H       1  UNL1        0.0618
     43 H          -3.3152   -3.9129   -0.5907 H       1  UNL1        0.0618
     44 H           5.2425   -1.0853    0.2708 H       1  UNL1        0.0618
@<TRIPOS>BOND
     1     1     4    1
     2     1     5    1
     3     1     9    1
     4     2     3    1
     5     2     5    1
     6     2     6    1
     7     2     7    1
     8     3     4    1
     9     3    22    1
    10     3    23    1
    11     4     8    1
    12     4    24    1
    13     5    10    2
    14     6    11   ar
    15     6    13   ar
    16     7    12   ar
    17     7    14   ar
    18     8    25    1
    19     8    26    1
    20     8    27    1
    21     9    28    1
    22     9    29    1
    23     9    30    1
    24    10    15    1
    25    10    31    1
    26    11    16   ar
    27    11    32    1
    28    12    17   ar
    29    12    33    1
    30    13    18   ar
    31    13    34    1
    32    14    19   ar
    33    14    35    1
    34    15    36    1
    35    15    37    1
    36    15    38    1
    37    16    20   ar
    38    16    39    1
    39    17    21   ar
    40    17    40    1
    41    18    20   ar
    42    18    41    1
    43    19    21   ar
    44    19    42    1
    45    20    43    1
    46    21    44    1
@<TRIPOS>MOLECULE
9865384
 49 51 0 0 0
SMALL
GASTEIGER

@<TRIPOS>ATOM
      1 CL         -6.0523   -2.5999    1.6210 Cl      1  UNL1       -0.0806
      2 F           0.9022    0.5133   -1.9645 F       1  UNL1       -0.2405
      3 F          -7.8101   -1.3132   -0.3910 F       1  UNL1       -0.2040
      4 O          -3.1152    2.3353    1.4845 O.2     1  UNL1       -0.2700
      5 N          -1.9570    1.2012   -0.2003 N.am    1  UNL1       -0.2973
      6 N           2.9151   -0.5214   -0.3537 N.3     1  UNL1       -0.3076
      7 N           6.0472   -0.7517   -0.9863 N.ar    1  UNL1       -0.2583
      8 C           0.5347   -0.1293   -0.8152 C.3     1  UNL1        0.1268
      9 C           0.4339    0.9211    0.2980 C.3     1  UNL1       -0.0018
     10 C          -0.8207   -0.8027   -1.0661 C.3     1  UNL1       -0.0018
     11 C          -0.6996    1.9107    0.0305 C.3     1  UNL1        0.0179
     12 C          -1.9177    0.2338   -1.3034 C.3     1  UNL1        0.0179
     13 C           1.6151   -1.1586   -0.5081 C.3     1  UNL1        0.0304
     14 C          -3.0744    1.5008    0.5817 C.2     1  UNL1        0.2467
     15 C           3.9456   -1.5054   -0.0497 C.3     1  UNL1        0.0386
     16 C          -4.3153    0.7580    0.3288 C.ar    1  UNL1        0.0385
     17 C           5.2973   -0.8661    0.1258 C.ar    1  UNL1        0.0550
     18 C          -4.5648   -0.4288    1.0131 C.ar    1  UNL1       -0.0285
     19 C          -5.2377    1.2453   -0.5935 C.ar    1  UNL1       -0.0468
     20 C           5.6779   -0.4466    1.3834 C.ar    1  UNL1       -0.0389
     21 C          -5.7449   -1.1331    0.7737 C.ar    1  UNL1        0.0768
     22 C          -6.4176    0.5410   -0.8332 C.ar    1  UNL1       -0.0243
     23 C          -6.6713   -0.6482   -0.1495 C.ar    1  UNL1        0.1417
     24 C           6.9326    0.1391    1.5111 C.ar    1  UNL1       -0.0557
     25 C           7.7451    0.2799    0.3915 C.ar    1  UNL1       -0.0323
     26 C           7.2603   -0.1776   -0.8233 C.ar    1  UNL1        0.0308
     27 C           9.0916    0.9032    0.4949 C.3     1  UNL1       -0.0383
     28 H           0.2576    0.4251    1.2611 H       1  UNL1        0.0311
     29 H           1.3645    1.4934    0.3822 H       1  UNL1        0.0311
     30 H          -0.7586   -1.4567   -1.9435 H       1  UNL1        0.0311
     31 H          -1.0921   -1.4247   -0.2038 H       1  UNL1        0.0311
     32 H          -0.7924    2.6034    0.8731 H       1  UNL1        0.0465
     33 H          -0.4883    2.5081   -0.8642 H       1  UNL1        0.0465
     34 H          -1.7223    0.7969   -2.2238 H       1  UNL1        0.0465
     35 H          -2.8749   -0.2749   -1.4344 H       1  UNL1        0.0465
     36 H           1.3518   -1.7092    0.4036 H       1  UNL1        0.0455
     37 H           1.6644   -1.8798   -1.3336 H       1  UNL1        0.0455
     38 H           3.1533   -0.0258   -1.2128 H       1  UNL1        0.1224
     39 H           3.6910   -2.0640    0.8602 H       1  UNL1        0.0489
     40 H           4.0150   -2.2430   -0.8600 H       1  UNL1        0.0489
     41 H          -3.8389   -0.8032    1.7314 H       1  UNL1        0.0640
     42 H          -5.0494    2.1707   -1.1314 H       1  UNL1        0.0626
     43 H           5.0351   -0.5598    2.2493 H       1  UNL1        0.0636
     44 H          -7.1389    0.9182   -1.5521 H       1  UNL1        0.0647
     45 H           7.2656    0.4838    2.4862 H       1  UNL1        0.0621
     46 H           7.8466   -0.0941   -1.7332 H       1  UNL1        0.0832
     47 H           9.0160    1.9872    0.3640 H       1  UNL1        0.0278
     48 H           9.7712    0.5055   -0.2664 H       1  UNL1        0.0278
     49 H           9.5466    0.6983    1.4699 H       1  UNL1        0.0278
@<TRIPOS>BOND
     1     1    21    1
     2     2     8    1
     3     3    23    1
     4     4    14    2
     5     5    11    1
     6     5    12    1
     7     5    14   am
     8     6    13    1
     9     6    15    1
    10     6    38    1
    11     7    17   ar
    12     7    26   ar
    13     8     9    1
    14     8    10    1
    15     8    13    1
    16     9    11    1
    17     9    28    1
    18     9    29    1
    19    10    12    1
    20    10    30    1
    21    10    31    1
    22    11    32    1
    23    11    33    1
    24    12    34    1
    25    12    35    1
    26    13    36    1
    27    13    37    1
    28    14    16    1
    29    15    17    1
    30    15    39    1
    31    15    40    1
    32    16    18   ar
    33    16    19   ar
    34    17    20   ar
    35    18    21   ar
    36    18    41    1
    37    19    22   ar
    38    19    42    1
    39    20    24   ar
    40    20    43    1
    41    21    23   ar
    42    22    23   ar
    43    22    44    1
    44    24    25   ar
    45    24    45    1
    46    25    26   ar
    47    25    27    1
    48    26    46    1
    49    27    47    1
    50    27    48    1
    51    27    49    1
