@<TRIPOS>MOLECULE
5288826
 40 44 0 0 0
SMALL
GASTEIGER

@<TRIPOS>ATOM
      1 O          -1.9930   -0.4740    1.2005 O.3     1  UNL1       -0.4811
      2 O          -2.7826   -2.5168   -0.2218 O.3     1  UNL1       -0.3841
      3 O          -3.6220    1.8421    0.5579 O.3     1  UNL1       -0.5033
      4 N           3.1777   -0.0101    0.4474 N.3     1  UNL1       -0.3015
      5 C           0.3699   -0.7149    0.6616 C.3     1  UNL1        0.0480
      6 C           1.2913   -1.3046   -0.4170 C.3     1  UNL1        0.0064
      7 C           2.3441   -0.2023   -0.7640 C.3     1  UNL1        0.0213
      8 C          -0.9377   -1.4750    0.9848 C.3     1  UNL1        0.1399
      9 C           1.1988   -0.3907    1.9201 C.3     1  UNL1       -0.0263
     10 C          -0.2516    0.5302    0.1205 C.ar    1  UNL1        0.0116
     11 C           1.6887    1.1052   -1.3279 C.3     1  UNL1       -0.0110
     12 C           2.4315    0.4754    1.6126 C.3     1  UNL1       -0.0001
     13 C           0.3384    1.4306   -0.7480 C.ar    1  UNL1       -0.0383
     14 C          -1.3631   -2.5067   -0.0924 C.3     1  UNL1        0.1110
     15 C           0.5066   -1.8183   -1.5971 C.2     1  UNL1       -0.0799
     16 C          -1.5672    0.6306    0.5136 C.ar    1  UNL1        0.1663
     17 C          -0.7155   -2.3492   -1.4425 C.2     1  UNL1       -0.0559
     18 C           4.3733    0.7916    0.2084 C.3     1  UNL1       -0.0124
     19 C          -0.4184    2.5415   -1.1246 C.ar    1  UNL1       -0.0546
     20 C          -2.3310    1.7217    0.1620 C.ar    1  UNL1        0.1588
     21 C          -1.7382    2.6936   -0.6541 C.ar    1  UNL1       -0.0162
     22 H           1.8278   -2.1759   -0.0118 H       1  UNL1        0.0368
     23 H           3.0029   -0.6035   -1.5465 H       1  UNL1        0.0472
     24 H          -0.8451   -2.0128    1.9373 H       1  UNL1        0.0772
     25 H           1.5366   -1.3335    2.3712 H       1  UNL1        0.0287
     26 H           0.5899    0.1174    2.6790 H       1  UNL1        0.0287
     27 H           1.5474    0.9596   -2.4075 H       1  UNL1        0.0329
     28 H           2.3530    1.9680   -1.2194 H       1  UNL1        0.0329
     29 H           2.1271    1.5205    1.4760 H       1  UNL1        0.0427
     30 H           3.0801    0.4584    2.4975 H       1  UNL1        0.0427
     31 H          -1.0772   -3.5067    0.2593 H       1  UNL1        0.0675
     32 H           0.9601   -1.7947   -2.5831 H       1  UNL1        0.0573
     33 H          -1.2300   -2.7505   -2.3109 H       1  UNL1        0.0596
     34 H           4.1500    1.8479    0.0287 H       1  UNL1        0.0391
     35 H           4.9380    0.4055   -0.6472 H       1  UNL1        0.0391
     36 H           5.0444    0.7352    1.0730 H       1  UNL1        0.0391
     37 H          -0.0062    3.2824   -1.8043 H       1  UNL1        0.0622
     38 H          -2.3121    3.5638   -0.9645 H       1  UNL1        0.0655
     39 H          -3.1557   -2.6446    0.6672 H       1  UNL1        0.2104
     40 H          -3.8483    1.0686    1.1031 H       1  UNL1        0.2923
@<TRIPOS>BOND
     1     1     8    1
     2     1    16    1
     3     2    14    1
     4     2    39    1
     5     3    20    1
     6     3    40    1
     7     4     7    1
     8     4    12    1
     9     4    18    1
    10     5     6    1
    11     5     8    1
    12     5     9    1
    13     5    10    1
    14     6     7    1
    15     6    15    1
    16     6    22    1
    17     7    11    1
    18     7    23    1
    19     8    14    1
    20     8    24    1
    21     9    12    1
    22     9    25    1
    23     9    26    1
    24    10    13   ar
    25    10    16   ar
    26    11    13    1
    27    11    27    1
    28    11    28    1
    29    12    29    1
    30    12    30    1
    31    13    19   ar
    32    14    17    1
    33    14    31    1
    34    15    17    2
    35    15    32    1
    36    16    20   ar
    37    17    33    1
    38    18    34    1
    39    18    35    1
    40    18    36    1
    41    19    21   ar
    42    19    37    1
    43    20    21   ar
    44    21    38    1
@<TRIPOS>MOLECULE
5360621
 60 65 0 0 0
SMALL
GASTEIGER

@<TRIPOS>ATOM
      1 O           0.6167   -1.2469   -0.7182 O.3     1  UNL1       -0.4811
      2 O          -1.1804   -0.1274    0.8101 O.3     1  UNL1       -0.3377
      3 O           1.2040   -3.9135    0.2696 O.3     1  UNL1       -0.5033
      4 O          -3.2661    0.8879    0.5616 O.3     1  UNL1       -0.3315
      5 O          -2.0881   -2.3243   -0.7178 O.3     1  UNL1       -0.3841
      6 O          -5.0097   -2.6584   -0.5589 O.3     1  UNL1       -0.3864
      7 O          -6.3253   -0.1375   -1.1612 O.3     1  UNL1       -0.3860
      8 O          -6.3787    2.3558   -0.1336 O.3     1  UNL1       -0.4788
      9 O          -4.8809    2.5903    1.5686 O.2     1  UNL1       -0.2480
     10 N           4.6440    2.1004   -1.0253 N.3     1  UNL1       -0.3015
     11 C           2.1641    0.6333   -0.6734 C.3     1  UNL1        0.0480
     12 C           2.5357    1.8496    0.1886 C.3     1  UNL1        0.0064
     13 C           0.6743    0.2223   -0.7334 C.3     1  UNL1        0.1402
     14 C           4.0928    1.8460    0.3277 C.3     1  UNL1        0.0213
     15 C           2.7988    0.7838   -2.0700 C.3     1  UNL1       -0.0263
     16 C           2.6832   -0.5955   -0.0024 C.ar    1  UNL1        0.0116
     17 C           4.6353    0.5533    1.0286 C.3     1  UNL1       -0.0110
     18 C           4.3092    1.0658   -2.0088 C.3     1  UNL1       -0.0001
     19 C          -0.2033    0.8239    0.3953 C.3     1  UNL1        0.1175
     20 C           3.8468   -0.6955    0.7390 C.ar    1  UNL1       -0.0383
     21 C           1.7875    1.8519    1.4971 C.2     1  UNL1       -0.0799
     22 C           1.7853   -1.6324   -0.1189 C.ar    1  UNL1        0.1663
     23 C           0.5417    1.3629    1.5875 C.2     1  UNL1       -0.0556
     24 C           6.0738    2.3921   -1.0245 C.3     1  UNL1       -0.0124
     25 C           4.1546   -1.9472    1.2747 C.ar    1  UNL1       -0.0546
     26 C           2.0710   -2.8788    0.3936 C.ar    1  UNL1        0.1588
     27 C           3.2797   -3.0355    1.0839 C.ar    1  UNL1       -0.0162
     28 C          -2.3542   -0.0538    0.0018 C.3     1  UNL1        0.1893
     29 C          -2.9859   -1.4455   -0.0401 C.3     1  UNL1        0.1342
     30 C          -4.3258   -1.4235   -0.7762 C.3     1  UNL1        0.1145
     31 C          -5.2212   -0.2916   -0.2710 C.3     1  UNL1        0.1201
     32 C          -4.4513    1.0219   -0.2145 C.3     1  UNL1        0.1859
     33 C          -5.2275    2.0661    0.5205 C.2     1  UNL1        0.3367
     34 H           2.2394    2.7754   -0.3277 H       1  UNL1        0.0368
     35 H           0.2344    0.5228   -1.6932 H       1  UNL1        0.0772
     36 H           4.3745    2.7030    0.9553 H       1  UNL1        0.0472
     37 H           2.3076    1.6165   -2.5915 H       1  UNL1        0.0287
     38 H           2.6305   -0.1109   -2.6833 H       1  UNL1        0.0287
     39 H           4.5808    0.7227    2.1126 H       1  UNL1        0.0329
     40 H           5.6914    0.3829    0.7978 H       1  UNL1        0.0329
     41 H           4.8529    0.1359   -1.8007 H       1  UNL1        0.0427
     42 H           4.6284    1.3905   -3.0072 H       1  UNL1        0.0427
     43 H          -0.7116    1.7124   -0.0099 H       1  UNL1        0.0679
     44 H           2.2534    2.2973    2.3706 H       1  UNL1        0.0573
     45 H           0.0179    1.4249    2.5371 H       1  UNL1        0.0596
     46 H           6.6878    1.5168   -0.7905 H       1  UNL1        0.0391
     47 H           6.3104    3.1845   -0.3061 H       1  UNL1        0.0391
     48 H           6.3836    2.7634   -2.0080 H       1  UNL1        0.0391
     49 H           5.0562   -2.0855    1.8654 H       1  UNL1        0.0622
     50 H           3.5362   -4.0006    1.5147 H       1  UNL1        0.0655
     51 H          -2.0911    0.2529   -1.0204 H       1  UNL1        0.0938
     52 H          -3.1150   -1.8433    0.9735 H       1  UNL1        0.0671
     53 H          -4.1673   -1.3420   -1.8589 H       1  UNL1        0.0648
     54 H           0.4258   -3.6029   -0.2254 H       1  UNL1        0.2923
     55 H          -5.6269   -0.5458    0.7168 H       1  UNL1        0.0652
     56 H          -4.2031    1.4164   -1.2077 H       1  UNL1        0.0741
     57 H          -1.9493   -1.9802   -1.6167 H       1  UNL1        0.2101
     58 H          -5.7935   -2.6679   -1.1334 H       1  UNL1        0.2100
     59 H          -6.8681   -0.9414   -1.1008 H       1  UNL1        0.2100
     60 H          -6.9044    3.0390    0.3346 H       1  UNL1        0.2951
@<TRIPOS>BOND
     1     1    13    1
     2     1    22    1
     3     2    19    1
     4     2    28    1
     5     3    26    1
     6     3    54    1
     7     4    28    1
     8     4    32    1
     9     5    29    1
    10     5    57    1
    11     6    30    1
    12     6    58    1
    13     7    31    1
    14     7    59    1
    15     8    33    1
    16     8    60    1
    17     9    33    2
    18    10    14    1
    19    10    18    1
    20    10    24    1
    21    11    12    1
    22    11    13    1
    23    11    15    1
    24    11    16    1
    25    12    14    1
    26    12    21    1
    27    12    34    1
    28    13    19    1
    29    13    35    1
    30    14    17    1
    31    14    36    1
    32    15    18    1
    33    15    37    1
    34    15    38    1
    35    16    20   ar
    36    16    22   ar
    37    17    20    1
    38    17    39    1
    39    17    40    1
    40    18    41    1
    41    18    42    1
    42    19    23    1
    43    19    43    1
    44    20    25   ar
    45    21    23    2
    46    21    44    1
    47    22    26   ar
    48    23    45    1
    49    24    46    1
    50    24    47    1
    51    24    48    1
    52    25    27   ar
    53    25    49    1
    54    26    27   ar
    55    27    50    1
    56    28    29    1
    57    28    51    1
    58    29    30    1
    59    29    52    1
    60    30    31    1
    61    30    53    1
    62    31    32    1
    63    31    55    1
    64    32    33    1
    65    32    56    1
@<TRIPOS>MOLECULE
117065089
 60 65 0 0 0
SMALL
GASTEIGER

@<TRIPOS>ATOM
      1 O          -0.6138   -1.2445    0.7133 O.3     1  UNL1       -0.4811
      2 O           1.1807   -0.1172   -0.8126 O.3     1  UNL1       -0.3377
      3 O          -1.1962   -3.9097   -0.2810 O.3     1  UNL1       -0.5033
      4 O           3.2708    0.8891   -0.5648 O.3     1  UNL1       -0.3315
      5 O           2.0757   -2.3119    0.7258 O.3     1  UNL1       -0.3841
      6 O           4.9959   -2.6605    0.5729 O.3     1  UNL1       -0.3864
      7 O           6.3225   -0.1439    1.1666 O.3     1  UNL1       -0.3860
      8 O           6.3884    2.3463    0.1301 O.3     1  UNL1       -0.4788
      9 O           4.8964    2.5781   -1.5774 O.2     1  UNL1       -0.2480
     10 N          -4.6475    2.0942    1.0305 N.3     1  UNL1       -0.3015
     11 C          -2.1651    0.6328    0.6739 C.3     1  UNL1        0.0480
     12 C          -2.5393    1.8505   -0.1849 C.3     1  UNL1        0.0064
     13 C          -0.6744    0.2247    0.7323 C.3     1  UNL1        0.1402
     14 C          -4.0964    1.8443   -0.3235 C.3     1  UNL1        0.0213
     15 C          -2.7994    0.7785    2.0712 C.3     1  UNL1       -0.0263
     16 C          -2.6819   -0.5952    0.0000 C.ar    1  UNL1        0.0116
     17 C          -4.6367    0.5522   -1.0274 C.3     1  UNL1       -0.0110
     18 C          -4.3104    1.0577    2.0112 C.3     1  UNL1       -0.0001
     19 C           0.2016    0.8309   -0.3950 C.3     1  UNL1        0.1175
     20 C          -3.8456   -0.6957   -0.7411 C.ar    1  UNL1       -0.0383
     21 C          -1.7915    1.8576   -1.4937 C.2     1  UNL1       -0.0799
     22 C          -1.7819   -1.6307    0.1134 C.ar    1  UNL1        0.1663
     23 C          -0.5450    1.3713   -1.5857 C.2     1  UNL1       -0.0556
     24 C          -6.0779    2.3832    1.0309 C.3     1  UNL1       -0.0124
     25 C          -4.1511   -1.9466   -1.2799 C.ar    1  UNL1       -0.0546
     26 C          -2.0654   -2.8763   -0.4021 C.ar    1  UNL1        0.1588
     27 C          -3.2741   -3.0337   -1.0922 C.ar    1  UNL1       -0.0162
     28 C           2.3535   -0.0458   -0.0027 C.3     1  UNL1        0.1893
     29 C           2.9786   -1.4403    0.0458 C.3     1  UNL1        0.1342
     30 C           4.3173   -1.4214    0.7841 C.3     1  UNL1        0.1145
     31 C           5.2188   -0.2963    0.2754 C.3     1  UNL1        0.1201
     32 C           4.4554    1.0206    0.2125 C.3     1  UNL1        0.1859
     33 C           5.2379    2.0578   -0.5257 C.2     1  UNL1        0.3367
     34 H          -2.2446    2.7755    0.3336 H       1  UNL1        0.0368
     35 H          -0.2349    0.5235    1.6927 H       1  UNL1        0.0772
     36 H          -4.3799    2.7023   -0.9488 H       1  UNL1        0.0472
     37 H          -2.3097    1.6108    2.5946 H       1  UNL1        0.0287
     38 H          -2.6292   -0.1174    2.6821 H       1  UNL1        0.0287
     39 H          -4.5829    0.7245   -2.1110 H       1  UNL1        0.0329
     40 H          -5.6924    0.3792   -0.7966 H       1  UNL1        0.0329
     41 H          -4.8524    0.1273    1.8010 H       1  UNL1        0.0427
     42 H          -4.6298    1.3793    3.0105 H       1  UNL1        0.0427
     43 H           0.7084    1.7195    0.0120 H       1  UNL1        0.0679
     44 H          -2.2587    2.3041   -2.3659 H       1  UNL1        0.0573
     45 H          -0.0216    1.4366   -2.5353 H       1  UNL1        0.0596
     46 H          -6.3163    3.1769    0.3145 H       1  UNL1        0.0391
     47 H          -6.3881    2.7514    2.0154 H       1  UNL1        0.0391
     48 H          -6.6903    1.5073    0.7949 H       1  UNL1        0.0391
     49 H          -5.0528   -2.0851   -1.8705 H       1  UNL1        0.0622
     50 H          -3.5346   -3.9958   -1.5276 H       1  UNL1        0.0655
     51 H           2.0909    0.2662    1.0179 H       1  UNL1        0.0938
     52 H           3.1033   -1.8410   -0.9671 H       1  UNL1        0.0671
     53 H           4.1636   -1.3396    1.8666 H       1  UNL1        0.0648
     54 H          -1.5759   -4.6921   -0.7165 H       1  UNL1        0.2923
     55 H           5.6305   -0.5581   -0.7071 H       1  UNL1        0.0652
     56 H           4.2055    1.4224    1.2023 H       1  UNL1        0.0741
     57 H           1.9393   -1.9648    1.6238 H       1  UNL1        0.2101
     58 H           5.1279   -2.7736   -0.3838 H       1  UNL1        0.2100
     59 H           5.9727    0.0963    2.0416 H       1  UNL1        0.2100
     60 H           6.9180    3.0251   -0.3401 H       1  UNL1        0.2951
@<TRIPOS>BOND
     1     1    13    1
     2     1    22    1
     3     2    19    1
     4     2    28    1
     5     3    26    1
     6     3    54    1
     7     4    28    1
     8     4    32    1
     9     5    29    1
    10     5    57    1
    11     6    30    1
    12     6    58    1
    13     7    31    1
    14     7    59    1
    15     8    33    1
    16     8    60    1
    17     9    33    2
    18    10    14    1
    19    10    18    1
    20    10    24    1
    21    11    12    1
    22    11    13    1
    23    11    15    1
    24    11    16    1
    25    12    14    1
    26    12    21    1
    27    12    34    1
    28    13    19    1
    29    13    35    1
    30    14    17    1
    31    14    36    1
    32    15    18    1
    33    15    37    1
    34    15    38    1
    35    16    20   ar
    36    16    22   ar
    37    17    20    1
    38    17    39    1
    39    17    40    1
    40    18    41    1
    41    18    42    1
    42    19    23    1
    43    19    43    1
    44    20    25   ar
    45    21    23    2
    46    21    44    1
    47    22    26   ar
    48    23    45    1
    49    24    46    1
    50    24    47    1
    51    24    48    1
    52    25    27   ar
    53    25    49    1
    54    26    27   ar
    55    27    50    1
    56    28    29    1
    57    28    51    1
    58    29    30    1
    59    29    52    1
    60    30    31    1
    61    30    53    1
    62    31    32    1
    63    31    55    1
    64    32    33    1
    65    32    56    1
@<TRIPOS>MOLECULE
117065139
 60 65 0 0 0
SMALL
GASTEIGER

@<TRIPOS>ATOM
      1 O           0.7115   -1.2093    1.2866 O.3     1  UNL1       -0.4811
      2 O           1.8553   -3.5358    1.5994 O.3     1  UNL1       -0.3841
      3 O          -1.4827   -1.4531   -0.5994 O.3     1  UNL1       -0.4571
      4 O          -2.6410    0.4540    0.0816 O.3     1  UNL1       -0.3221
      5 O          -3.9353   -2.6726   -1.2933 O.3     1  UNL1       -0.3829
      6 O          -6.1907   -1.6041    0.2702 O.3     1  UNL1       -0.3863
      7 O          -6.1993    1.2989    0.1324 O.3     1  UNL1       -0.3860
      8 O          -4.5405    3.3134    0.8177 O.3     1  UNL1       -0.4788
      9 O          -2.5391    2.5250    1.5717 O.2     1  UNL1       -0.2480
     10 N           4.5105    2.1962    0.0662 N.3     1  UNL1       -0.3015
     11 C           2.7781    0.0128    0.8774 C.3     1  UNL1        0.0480
     12 C           4.2163   -0.2107    0.3855 C.3     1  UNL1        0.0064
     13 C           4.5129    0.9069   -0.6666 C.3     1  UNL1        0.0213
     14 C           2.1178   -1.1141    1.7056 C.3     1  UNL1        0.1399
     15 C           2.6799    1.3914    1.5600 C.3     1  UNL1       -0.0263
     16 C           1.8633   -0.0435   -0.3014 C.ar    1  UNL1        0.0116
     17 C           3.5485    0.8480   -1.9009 C.3     1  UNL1       -0.0110
     18 C           3.2211    2.5300    0.6794 C.3     1  UNL1       -0.0001
     19 C           2.1517    0.3858   -1.5843 C.ar    1  UNL1       -0.0383
     20 C           2.8244   -2.4904    1.5944 C.3     1  UNL1        0.1110
     21 C           4.4188   -1.6172   -0.1171 C.2     1  UNL1       -0.0799
     22 C           0.6930   -0.6940    0.0187 C.ar    1  UNL1        0.1667
     23 C           3.7633   -2.6525    0.4286 C.2     1  UNL1       -0.0559
     24 C           1.1452    0.2507   -2.5420 C.ar    1  UNL1       -0.0546
     25 C           5.0321    3.3108   -0.7179 C.3     1  UNL1       -0.0124
     26 C          -0.3179   -0.8313   -0.9070 C.ar    1  UNL1        0.1657
     27 C          -0.0888   -0.3362   -2.1971 C.ar    1  UNL1       -0.0159
     28 C          -2.6854   -0.7006   -0.7530 C.3     1  UNL1        0.2314
     29 C          -3.8574   -1.5986   -0.3564 C.3     1  UNL1        0.1455
     30 C          -5.1755   -0.8237   -0.3630 C.3     1  UNL1        0.1157
     31 C          -5.0502    0.4962    0.3983 C.3     1  UNL1        0.1202
     32 C          -3.8078    1.2588   -0.0441 C.3     1  UNL1        0.1869
     33 C          -3.5323    2.4088    0.8695 C.2     1  UNL1        0.3367
     34 H           4.9189   -0.0880    1.2237 H       1  UNL1        0.0368
     35 H           5.5347    0.7520   -1.0401 H       1  UNL1        0.0472
     36 H           2.0884   -0.8438    2.7692 H       1  UNL1        0.0772
     37 H           3.2592    1.3640    2.4929 H       1  UNL1        0.0287
     38 H           1.6449    1.6241    1.8422 H       1  UNL1        0.0287
     39 H           3.9721    0.1252   -2.6114 H       1  UNL1        0.0329
     40 H           3.5081    1.8070   -2.4266 H       1  UNL1        0.0329
     41 H           2.4796    2.7936   -0.0848 H       1  UNL1        0.0427
     42 H           3.3350    3.4174    1.3148 H       1  UNL1        0.0427
     43 H           3.4329   -2.6272    2.4980 H       1  UNL1        0.0675
     44 H           5.1412   -1.7963   -0.9073 H       1  UNL1        0.0573
     45 H           3.9734   -3.6554    0.0679 H       1  UNL1        0.0596
     46 H           1.3161    0.5687   -3.5671 H       1  UNL1        0.0622
     47 H           6.0075    3.0619   -1.1500 H       1  UNL1        0.0391
     48 H           5.1926    4.1828   -0.0737 H       1  UNL1        0.0391
     49 H           4.3610    3.6140   -1.5276 H       1  UNL1        0.0391
     50 H          -0.8423   -0.4445   -2.9734 H       1  UNL1        0.0655
     51 H           2.3302   -4.3845    1.6015 H       1  UNL1        0.2104
     52 H          -2.7912   -0.3975   -1.8031 H       1  UNL1        0.1084
     53 H          -3.6807   -2.0487    0.6276 H       1  UNL1        0.0683
     54 H          -5.5205   -0.6512   -1.3893 H       1  UNL1        0.0648
     55 H          -5.0305    0.3078    1.4788 H       1  UNL1        0.0652
     56 H          -3.8808    1.6462   -1.0679 H       1  UNL1        0.0742
     57 H          -4.0891   -2.2931   -2.1753 H       1  UNL1        0.2102
     58 H          -5.9033   -1.7932    1.1797 H       1  UNL1        0.2100
     59 H          -6.2257    1.4809   -0.8225 H       1  UNL1        0.2100
     60 H          -4.3791    4.0765    1.4126 H       1  UNL1        0.2951
@<TRIPOS>BOND
     1     1    14    1
     2     1    22    1
     3     2    20    1
     4     2    51    1
     5     3    26    1
     6     3    28    1
     7     4    28    1
     8     4    32    1
     9     5    29    1
    10     5    57    1
    11     6    30    1
    12     6    58    1
    13     7    31    1
    14     7    59    1
    15     8    33    1
    16     8    60    1
    17     9    33    2
    18    10    13    1
    19    10    18    1
    20    10    25    1
    21    11    12    1
    22    11    14    1
    23    11    15    1
    24    11    16    1
    25    12    13    1
    26    12    21    1
    27    12    34    1
    28    13    17    1
    29    13    35    1
    30    14    20    1
    31    14    36    1
    32    15    18    1
    33    15    37    1
    34    15    38    1
    35    16    19   ar
    36    16    22   ar
    37    17    19    1
    38    17    39    1
    39    17    40    1
    40    18    41    1
    41    18    42    1
    42    19    24   ar
    43    20    23    1
    44    20    43    1
    45    21    23    2
    46    21    44    1
    47    22    26   ar
    48    23    45    1
    49    24    27   ar
    50    24    46    1
    51    25    47    1
    52    25    48    1
    53    25    49    1
    54    26    27   ar
    55    27    50    1
    56    28    29    1
    57    28    52    1
    58    29    30    1
    59    29    53    1
    60    30    31    1
    61    30    54    1
    62    31    32    1
    63    31    55    1
    64    32    33    1
    65    32    56    1
@<TRIPOS>MOLECULE
5484731
 60 65 0 0 0
SMALL
GASTEIGER

@<TRIPOS>ATOM
      1 O          -0.3961   -0.8251    1.4139 O.3     1  UNL1       -0.4811
      2 O           0.5534    1.5059    2.1096 O.3     1  UNL1       -0.3841
      3 O           1.3232   -2.0089   -0.6045 O.3     1  UNL1       -0.4571
      4 O           2.4773    0.0071   -0.8203 O.3     1  UNL1       -0.3221
      5 O           3.3180   -2.9403    1.1670 O.3     1  UNL1       -0.3829
      6 O           5.9204   -1.6462    0.6912 O.3     1  UNL1       -0.3863
      7 O           5.5926    1.2415    0.6457 O.3     1  UNL1       -0.3860
      8 O           4.2281    3.0503   -0.8179 O.3     1  UNL1       -0.4788
      9 O           2.8487    2.0374   -2.3236 O.2     1  UNL1       -0.2480
     10 N          -5.4207   -0.0850    0.1006 N.3     1  UNL1       -0.3015
     11 C          -2.6710   -0.0445    1.0301 C.3     1  UNL1        0.0480
     12 C          -3.4496    1.2362    0.6926 C.3     1  UNL1        0.0064
     13 C          -4.4384    0.8728   -0.4624 C.3     1  UNL1        0.0213
     14 C          -1.4234    0.0893    1.9344 C.3     1  UNL1        0.1399
     15 C          -3.6535   -1.1245    1.5242 C.3     1  UNL1       -0.0263
     16 C          -1.9733   -0.5105   -0.2049 C.ar    1  UNL1        0.0116
     17 C          -3.7036    0.3800   -1.7562 C.3     1  UNL1       -0.0110
     18 C          -4.8280   -1.3464    0.5568 C.3     1  UNL1       -0.0001
     19 C          -2.4374   -0.3931   -1.5027 C.ar    1  UNL1       -0.0383
     20 C          -0.8708    1.5335    2.0557 C.3     1  UNL1        0.1110
     21 C          -2.5227    2.3854    0.3886 C.2     1  UNL1       -0.0799
     22 C          -0.7192   -0.9929    0.0945 C.ar    1  UNL1        0.1667
     23 C          -1.3359    2.5037    1.0023 C.2     1  UNL1       -0.0559
     24 C          -1.6280   -0.9073   -2.5172 C.ar    1  UNL1       -0.0546
     25 C          -6.5679   -0.3196   -0.7702 C.3     1  UNL1       -0.0124
     26 C           0.0936   -1.5136   -0.8883 C.ar    1  UNL1        0.1657
     27 C          -0.3794   -1.4821   -2.2064 C.ar    1  UNL1       -0.0159
     28 C           2.2566   -1.1256    0.0163 C.3     1  UNL1        0.2314
     29 C           3.5621   -1.8925    0.2288 C.3     1  UNL1        0.1455
     30 C           4.6612   -0.9761    0.7668 C.3     1  UNL1        0.1157
     31 C           4.7618    0.3131   -0.0492 C.3     1  UNL1        0.1202
     32 C           3.3859    0.9380   -0.2435 C.3     1  UNL1        0.1869
     33 C           3.4360    2.0397   -1.2519 C.2     1  UNL1        0.3367
     34 H          -4.0420    1.5517    1.5648 H       1  UNL1        0.0368
     35 H          -4.9935    1.7837   -0.7265 H       1  UNL1        0.0472
     36 H          -1.6436   -0.2652    2.9496 H       1  UNL1        0.0772
     37 H          -4.0555   -0.8149    2.4985 H       1  UNL1        0.0287
     38 H          -3.1439   -2.0829    1.6875 H       1  UNL1        0.0287
     39 H          -3.4243    1.2725   -2.3327 H       1  UNL1        0.0329
     40 H          -4.3686   -0.2046   -2.3994 H       1  UNL1        0.0329
     41 H          -4.4990   -1.9557   -0.2940 H       1  UNL1        0.0427
     42 H          -5.5863   -1.9395    1.0835 H       1  UNL1        0.0427
     43 H          -1.2087    1.9501    3.0135 H       1  UNL1        0.0675
     44 H          -2.8438    3.1517   -0.3101 H       1  UNL1        0.0573
     45 H          -0.7158    3.3699    0.7899 H       1  UNL1        0.0596
     46 H          -1.9415   -0.8435   -3.5557 H       1  UNL1        0.0622
     47 H          -6.3137   -0.8964   -1.6649 H       1  UNL1        0.0391
     48 H          -7.0200    0.6275   -1.0843 H       1  UNL1        0.0391
     49 H          -7.3462   -0.8695   -0.2289 H       1  UNL1        0.0391
     50 H           0.2384   -1.8709   -3.0126 H       1  UNL1        0.0655
     51 H           0.8073    0.8823    2.8112 H       1  UNL1        0.2104
     52 H           1.8829   -0.8037    0.9935 H       1  UNL1        0.1084
     53 H           3.8832   -2.3667   -0.7070 H       1  UNL1        0.0683
     54 H           4.4877   -0.7569    1.8279 H       1  UNL1        0.0648
     55 H           5.2346    0.1084   -1.0186 H       1  UNL1        0.0652
     56 H           2.9663    1.3438    0.6847 H       1  UNL1        0.0742
     57 H           4.1613   -3.4027    1.3112 H       1  UNL1        0.2102
     58 H           6.5763   -1.0966    1.1520 H       1  UNL1        0.2100
     59 H           6.4932    0.8766    0.6632 H       1  UNL1        0.2100
     60 H           4.2754    3.7838   -1.4676 H       1  UNL1        0.2951
@<TRIPOS>BOND
     1     1    14    1
     2     1    22    1
     3     2    20    1
     4     2    51    1
     5     3    26    1
     6     3    28    1
     7     4    28    1
     8     4    32    1
     9     5    29    1
    10     5    57    1
    11     6    30    1
    12     6    58    1
    13     7    31    1
    14     7    59    1
    15     8    33    1
    16     8    60    1
    17     9    33    2
    18    10    13    1
    19    10    18    1
    20    10    25    1
    21    11    12    1
    22    11    14    1
    23    11    15    1
    24    11    16    1
    25    12    13    1
    26    12    21    1
    27    12    34    1
    28    13    17    1
    29    13    35    1
    30    14    20    1
    31    14    36    1
    32    15    18    1
    33    15    37    1
    34    15    38    1
    35    16    19   ar
    36    16    22   ar
    37    17    19    1
    38    17    39    1
    39    17    40    1
    40    18    41    1
    41    18    42    1
    42    19    24   ar
    43    20    23    1
    44    20    43    1
    45    21    23    2
    46    21    44    1
    47    22    26   ar
    48    23    45    1
    49    24    27   ar
    50    24    46    1
    51    25    47    1
    52    25    48    1
    53    25    49    1
    54    26    27   ar
    55    27    50    1
    56    28    29    1
    57    28    52    1
    58    29    30    1
    59    29    53    1
    60    30    31    1
    61    30    54    1
    62    31    32    1
    63    31    55    1
    64    32    33    1
    65    32    56    1
@<TRIPOS>MOLECULE
553565
 64 68 0 0 0
SMALL
GASTEIGER

@<TRIPOS>ATOM
      1 SI          3.6590    3.1141    0.0301 Si      1  UNL1        0.0000
      2 SI         -4.5452    1.9538   -0.2617 Si      1  UNL1        0.0000
      3 O          -0.4571    0.9764   -1.0728 O.3     1  UNL1        0.0000
      4 O           2.7289    1.9940   -0.7937 O.3     1  UNL1        0.0000
      5 O          -2.9811    1.6205    0.2480 O.3     1  UNL1        0.0000
      6 N           1.0863   -3.9721   -0.7147 N.3     1  UNL1        0.0000
      7 C           0.7652   -1.0858   -0.7728 C.3     1  UNL1        0.0000
      8 C           1.9177   -1.7758   -0.0348 C.3     1  UNL1        0.0000
      9 C           0.9114    0.4149   -1.0942 C.3     1  UNL1        0.0000
     10 C           1.3641   -3.1423    0.4835 C.3     1  UNL1        0.0000
     11 C           0.3935   -1.9405   -2.0036 C.3     1  UNL1        0.0000
     12 C          -0.4210   -0.9684    0.1206 C.ar    1  UNL1        0.0000
     13 C           0.1576   -2.9698    1.4712 C.3     1  UNL1        0.0000
     14 C           0.0899   -3.4026   -1.6285 C.3     1  UNL1        0.0000
     15 C           1.7638    1.2209   -0.0760 C.3     1  UNL1        0.0000
     16 C          -0.7782   -1.8431    1.1276 C.ar    1  UNL1        0.0000
     17 C           2.5433   -0.9074    1.0192 C.2     1  UNL1        0.0000
     18 C          -1.1112    0.1943   -0.1510 C.ar    1  UNL1        0.0000
     19 C           2.4835    0.4300    0.9798 C.2     1  UNL1        0.0000
     20 C          -1.9522   -1.5546    1.8239 C.ar    1  UNL1        0.0000
     21 C           0.7864   -5.3651   -0.4011 C.3     1  UNL1        0.0000
     22 C          -2.2802    0.4910    0.5114 C.ar    1  UNL1        0.0000
     23 C          -2.7057   -0.4049    1.5027 C.ar    1  UNL1        0.0000
     24 C           4.8287    3.9680   -1.1752 C.3     1  UNL1        0.0000
     25 C           4.6988    2.2921    1.3649 C.3     1  UNL1        0.0000
     26 C           2.5877    4.4347    0.8342 C.3     1  UNL1        0.0000
     27 C          -5.7862    1.2644    0.9821 C.3     1  UNL1        0.0000
     28 C          -4.8410    3.8057   -0.3932 C.3     1  UNL1        0.0000
     29 C          -4.9067    1.1577   -1.9258 C.3     1  UNL1        0.0000
     30 H           2.7320   -1.9861   -0.7455 H       1  UNL1        0.0000
     31 H           1.2954    0.5628   -2.1111 H       1  UNL1        0.0000
     32 H           2.1702   -3.6430    1.0375 H       1  UNL1        0.0000
     33 H           1.2320   -1.9237   -2.7129 H       1  UNL1        0.0000
     34 H          -0.4716   -1.5256   -2.5368 H       1  UNL1        0.0000
     35 H           0.5737   -2.7500    2.4636 H       1  UNL1        0.0000
     36 H          -0.4083   -3.9009    1.5745 H       1  UNL1        0.0000
     37 H          -0.9174   -3.4725   -1.1993 H       1  UNL1        0.0000
     38 H           0.0681   -3.9873   -2.5568 H       1  UNL1        0.0000
     39 H           1.0914    1.9194    0.4432 H       1  UNL1        0.0000
     40 H           3.0339   -1.3911    1.8592 H       1  UNL1        0.0000
     41 H           2.7932    0.9234    1.8905 H       1  UNL1        0.0000
     42 H          -2.2841   -2.2003    2.6326 H       1  UNL1        0.0000
     43 H           0.7955   -5.9684   -1.3159 H       1  UNL1        0.0000
     44 H          -0.1920   -5.4933    0.0728 H       1  UNL1        0.0000
     45 H           1.5506   -5.7908    0.2582 H       1  UNL1        0.0000
     46 H          -3.6026   -0.2051    2.0824 H       1  UNL1        0.0000
     47 H           4.2631    4.4775   -1.9608 H       1  UNL1        0.0000
     48 H           5.4430    4.7093   -0.6558 H       1  UNL1        0.0000
     49 H           5.4927    3.2374   -1.6462 H       1  UNL1        0.0000
     50 H           4.2099    2.2875    2.3426 H       1  UNL1        0.0000
     51 H           5.0220    1.2854    1.0861 H       1  UNL1        0.0000
     52 H           5.6131    2.8825    1.4977 H       1  UNL1        0.0000
     53 H           1.9581    4.9253    0.0862 H       1  UNL1        0.0000
     54 H           1.9381    3.9969    1.5976 H       1  UNL1        0.0000
     55 H           3.2114    5.1960    1.3121 H       1  UNL1        0.0000
     56 H          -5.5644    1.6304    1.9887 H       1  UNL1        0.0000
     57 H          -6.8007    1.5775    0.7177 H       1  UNL1        0.0000
     58 H          -5.7606    0.1712    0.9923 H       1  UNL1        0.0000
     59 H          -4.1577    4.2523   -1.1214 H       1  UNL1        0.0000
     60 H          -5.8669    4.0113   -0.7126 H       1  UNL1        0.0000
     61 H          -4.6775    4.2903    0.5738 H       1  UNL1        0.0000
     62 H          -4.7870    0.0718   -1.8669 H       1  UNL1        0.0000
     63 H          -5.9309    1.3744   -2.2433 H       1  UNL1        0.0000
     64 H          -4.2216    1.5376   -2.6893 H       1  UNL1        0.0000
@<TRIPOS>BOND
     1     1     4    1
     2     1    24    1
     3     1    25    1
     4     1    26    1
     5     2     5    1
     6     2    27    1
     7     2    28    1
     8     2    29    1
     9     3     9    1
    10     3    18    1
    11     4    15    1
    12     5    22    1
    13     6    10    1
    14     6    14    1
    15     6    21    1
    16     7     8    1
    17     7     9    1
    18     7    11    1
    19     7    12    1
    20     8    10    1
    21     8    17    1
    22     8    30    1
    23     9    15    1
    24     9    31    1
    25    10    13    1
    26    10    32    1
    27    11    14    1
    28    11    33    1
    29    11    34    1
    30    12    16   ar
    31    12    18   ar
    32    13    16    1
    33    13    35    1
    34    13    36    1
    35    14    37    1
    36    14    38    1
    37    15    19    1
    38    15    39    1
    39    16    20   ar
    40    17    19    2
    41    17    40    1
    42    18    22   ar
    43    19    41    1
    44    20    23   ar
    45    20    42    1
    46    21    43    1
    47    21    44    1
    48    21    45    1
    49    22    23   ar
    50    23    46    1
    51    24    47    1
    52    24    48    1
    53    24    49    1
    54    25    50    1
    55    25    51    1
    56    25    52    1
    57    26    53    1
    58    26    54    1
    59    26    55    1
    60    27    56    1
    61    27    57    1
    62    27    58    1
    63    28    59    1
    64    28    60    1
    65    28    61    1
    66    29    62    1
    67    29    63    1
    68    29    64    1
@<TRIPOS>MOLECULE
5362459
 41 45 0 0 0
SMALL
GASTEIGER

@<TRIPOS>ATOM
      1 O           2.0728   -0.5898   -1.2629 O.3     1  UNL1       -0.4811
      2 O          -3.7941   -0.8468   -0.6293 O.co2   1  UNL1       -0.7753
      3 O           2.8094   -2.5983    0.2423 O.3     1  UNL1       -0.3841
      4 O           3.8801    1.6180   -0.7147 O.3     1  UNL1       -0.5033
      5 N          -3.0573    0.2835   -0.3194 N.3     1  UNL1        0.2178
      6 C          -0.2703   -0.6719   -0.6092 C.3     1  UNL1        0.0553
      7 C          -1.1869   -1.1942    0.5064 C.3     1  UNL1        0.0338
      8 C          -2.1386   -0.0154    0.8899 C.3     1  UNL1       -0.0105
      9 C           0.9715   -1.5203   -0.9724 C.3     1  UNL1        0.1402
     10 C          -1.1127   -0.3008   -1.8482 C.3     1  UNL1        0.0014
     11 C           0.4572    0.5292   -0.1035 C.ar    1  UNL1        0.0120
     12 C          -2.2421    0.6839   -1.5325 C.3     1  UNL1       -0.0317
     13 C          -1.3665    1.2287    1.4381 C.3     1  UNL1        0.0164
     14 C          -0.0291    1.4666    0.7892 C.ar    1  UNL1       -0.0345
     15 C           1.3913   -2.5502    0.1102 C.3     1  UNL1        0.1110
     16 C          -0.4021   -1.7616    1.6601 C.2     1  UNL1       -0.0761
     17 C           1.7555    0.5431   -0.5622 C.ar    1  UNL1        0.1663
     18 C           0.7809   -2.3640    1.4715 C.2     1  UNL1       -0.0558
     19 C          -4.0595    1.3604   -0.0075 C.3     1  UNL1       -0.0436
     20 C           0.8168    2.5257    1.1231 C.ar    1  UNL1       -0.0544
     21 C           2.6053    1.5826   -0.2548 C.ar    1  UNL1        0.1588
     22 C           2.1184    2.5917    0.5859 C.ar    1  UNL1       -0.0162
     23 H          -1.7877   -2.0287    0.1200 H       1  UNL1        0.0408
     24 H          -2.8445   -0.3512    1.6622 H       1  UNL1        0.0859
     25 H           0.7986   -2.0740   -1.9042 H       1  UNL1        0.0772
     26 H          -1.5495   -1.2188   -2.2627 H       1  UNL1        0.0327
     27 H          -0.4865    0.1286   -2.6407 H       1  UNL1        0.0327
     28 H          -1.8547    1.6894   -1.3392 H       1  UNL1        0.0814
     29 H          -2.9458    0.7440   -2.3711 H       1  UNL1        0.0814
     30 H          -1.1718    1.0474    2.5038 H       1  UNL1        0.0368
     31 H          -1.9615    2.1426    1.3827 H       1  UNL1        0.0368
     32 H           1.0813   -3.5463   -0.2295 H       1  UNL1        0.0675
     33 H          -0.8287   -1.7198    2.6575 H       1  UNL1        0.0575
     34 H           1.2886   -2.8012    2.3269 H       1  UNL1        0.0596
     35 H          -4.5533    1.0944    0.9305 H       1  UNL1        0.0777
     36 H          -3.5511    2.3227    0.0603 H       1  UNL1        0.0777
     37 H          -4.7838    1.3797   -0.8279 H       1  UNL1        0.0777
     38 H           0.4886    3.2924    1.8199 H       1  UNL1        0.0622
     39 H           2.7624    3.4229    0.8637 H       1  UNL1        0.0655
     40 H           3.1141   -1.7134    0.5065 H       1  UNL1        0.2104
     41 H           4.0284    0.8303   -1.2664 H       1  UNL1        0.2923
@<TRIPOS>UNITY_ATOM_ATTR
2 1
charge -1
5 1
charge 1
@<TRIPOS>BOND
     1     1     9    1
     2     1    17    1
     3     2     5    1
     4     3    15    1
     5     3    40    1
     6     4    21    1
     7     4    41    1
     8     5     8    1
     9     5    12    1
    10     5    19    1
    11     6     7    1
    12     6     9    1
    13     6    10    1
    14     6    11    1
    15     7     8    1
    16     7    16    1
    17     7    23    1
    18     8    13    1
    19     8    24    1
    20     9    15    1
    21     9    25    1
    22    10    12    1
    23    10    26    1
    24    10    27    1
    25    11    14   ar
    26    11    17   ar
    27    12    28    1
    28    12    29    1
    29    13    14    1
    30    13    30    1
    31    13    31    1
    32    14    20   ar
    33    15    18    1
    34    15    32    1
    35    16    18    2
    36    16    33    1
    37    17    21   ar
    38    18    34    1
    39    19    35    1
    40    19    36    1
    41    19    37    1
    42    20    22   ar
    43    20    38    1
    44    21    22   ar
    45    22    39    1
@<TRIPOS>MOLECULE
571623
 62 68 0 0 0
SMALL
GASTEIGER

@<TRIPOS>ATOM
      1 O           0.5818    0.2413    0.7740 O.3     1  UNL1       -0.4799
      2 O          -2.5060    1.4277    0.1982 O.3     1  UNL1       -0.4499
      3 O           3.2188    0.5405   -0.4462 O.3     1  UNL1       -0.4186
      4 O          -2.6585    2.7280   -1.6951 O.2     1  UNL1       -0.2449
      5 O           4.9199   -0.8285    0.3695 O.2     1  UNL1       -0.2445
      6 N          -1.2407   -4.6520    0.8200 N.3     1  UNL1       -0.3015
      7 N          -6.4347    1.9072    1.0331 N.ar    1  UNL1       -0.2624
      8 N           5.2884    3.8790    0.6524 N.ar    1  UNL1       -0.2624
      9 C          -0.7866   -1.7440    0.6237 C.3     1  UNL1        0.0491
     10 C          -1.9441   -2.4218   -0.1129 C.3     1  UNL1        0.0064
     11 C          -1.4786   -3.8784   -0.4282 C.3     1  UNL1        0.0213
     12 C          -0.8273   -0.2093    0.7666 C.3     1  UNL1        0.1509
     13 C          -0.5664   -2.4801    1.9628 C.3     1  UNL1       -0.0263
     14 C           0.4560   -1.8201   -0.1958 C.ar    1  UNL1        0.0116
     15 C          -0.1999   -3.9261   -1.3372 C.3     1  UNL1       -0.0110
     16 C          -0.3273   -3.9886    1.7641 C.3     1  UNL1       -0.0001
     17 C           0.7983   -2.8316   -1.0723 C.ar    1  UNL1       -0.0383
     18 C          -1.5500    0.5393   -0.3868 C.3     1  UNL1        0.1590
     19 C          -2.4155   -1.6402   -1.3059 C.2     1  UNL1       -0.0788
     20 C           1.2211   -0.6879   -0.0112 C.ar    1  UNL1        0.1674
     21 C          -2.2508   -0.3147   -1.4065 C.2     1  UNL1       -0.0439
     22 C          -2.4881   -5.0423    1.4775 C.3     1  UNL1       -0.0124
     23 C           2.0290   -2.7140   -1.7183 C.ar    1  UNL1       -0.0545
     24 C           2.4453   -0.5576   -0.6259 C.ar    1  UNL1        0.1737
     25 C           2.8524   -1.5922   -1.4807 C.ar    1  UNL1       -0.0153
     26 C          -3.1269    2.2749   -0.6623 C.2     1  UNL1        0.3413
     27 C           4.4915    0.2764    0.0722 C.2     1  UNL1        0.3460
     28 C          -4.4930    2.5965   -0.1779 C.ar    1  UNL1        0.0770
     29 C           5.2771    1.5251    0.2403 C.ar    1  UNL1        0.0774
     30 C          -5.0554    3.8144   -0.4747 C.ar    1  UNL1       -0.0449
     31 C          -5.1882    1.6784    0.5626 C.ar    1  UNL1        0.0415
     32 C          -6.3367    4.0868   -0.0080 C.ar    1  UNL1       -0.0428
     33 C           6.6472    1.4899    0.1437 C.ar    1  UNL1       -0.0449
     34 C           4.6338    2.7075    0.4902 C.ar    1  UNL1        0.0415
     35 C          -6.9779    3.1086    0.7347 C.ar    1  UNL1        0.0276
     36 C           7.3558    2.6754    0.3050 C.ar    1  UNL1       -0.0428
     37 C           6.6360    3.8325    0.5553 C.ar    1  UNL1        0.0276
     38 H          -2.8202   -2.4648    0.5482 H       1  UNL1        0.0368
     39 H          -2.2651   -4.3975   -0.9935 H       1  UNL1        0.0472
     40 H          -1.2535    0.0815    1.7347 H       1  UNL1        0.0783
     41 H          -1.4489   -2.3365    2.5999 H       1  UNL1        0.0287
     42 H           0.2848   -2.0599    2.5140 H       1  UNL1        0.0287
     43 H          -0.5263   -3.8242   -2.3807 H       1  UNL1        0.0329
     44 H           0.2890   -4.9047   -1.2527 H       1  UNL1        0.0329
     45 H           0.6994   -4.1438    1.4102 H       1  UNL1        0.0427
     46 H          -0.3511   -4.4892    2.7408 H       1  UNL1        0.0427
     47 H          -0.8111    1.1545   -0.9184 H       1  UNL1        0.0817
     48 H          -2.9550   -2.1673   -2.0875 H       1  UNL1        0.0574
     49 H          -2.6356    0.1687   -2.3008 H       1  UNL1        0.0607
     50 H          -3.0366   -4.1946    1.8997 H       1  UNL1        0.0391
     51 H          -2.2818   -5.7469    2.2912 H       1  UNL1        0.0391
     52 H          -3.1484   -5.5678    0.7789 H       1  UNL1        0.0391
     53 H           2.3544   -3.4742   -2.4232 H       1  UNL1        0.0622
     54 H           3.7979   -1.5241   -2.0148 H       1  UNL1        0.0656
     55 H          -4.5273    4.5631   -1.0571 H       1  UNL1        0.0627
     56 H          -4.7949    0.6991    0.8137 H       1  UNL1        0.0838
     57 H          -6.8178    5.0351   -0.2185 H       1  UNL1        0.0633
     58 H           7.1843    0.5680   -0.0567 H       1  UNL1        0.0627
     59 H           3.5563    2.7856    0.5871 H       1  UNL1        0.0838
     60 H          -7.9784    3.2718    1.1219 H       1  UNL1        0.0829
     61 H           8.4375    2.6933    0.2359 H       1  UNL1        0.0633
     62 H           7.1415    4.7832    0.6884 H       1  UNL1        0.0829
@<TRIPOS>BOND
     1     1    12    1
     2     1    20    1
     3     2    18    1
     4     2    26    1
     5     3    24    1
     6     3    27    1
     7     4    26    2
     8     5    27    2
     9     6    11    1
    10     6    16    1
    11     6    22    1
    12     7    31   ar
    13     7    35   ar
    14     8    34   ar
    15     8    37   ar
    16     9    10    1
    17     9    12    1
    18     9    13    1
    19     9    14    1
    20    10    11    1
    21    10    19    1
    22    10    38    1
    23    11    15    1
    24    11    39    1
    25    12    18    1
    26    12    40    1
    27    13    16    1
    28    13    41    1
    29    13    42    1
    30    14    17   ar
    31    14    20   ar
    32    15    17    1
    33    15    43    1
    34    15    44    1
    35    16    45    1
    36    16    46    1
    37    17    23   ar
    38    18    21    1
    39    18    47    1
    40    19    21    2
    41    19    48    1
    42    20    24   ar
    43    21    49    1
    44    22    50    1
    45    22    51    1
    46    22    52    1
    47    23    25   ar
    48    23    53    1
    49    24    25   ar
    50    25    54    1
    51    26    28    1
    52    27    29    1
    53    28    30   ar
    54    28    31   ar
    55    29    33   ar
    56    29    34   ar
    57    30    32   ar
    58    30    55    1
    59    31    56    1
    60    32    35   ar
    61    32    57    1
    62    33    36   ar
    63    33    58    1
    64    34    59    1
    65    35    60    1
    66    36    37   ar
    67    36    61    1
    68    37    62    1
@<TRIPOS>MOLECULE
11574548
 51 55 0 0 0
SMALL
GASTEIGER

@<TRIPOS>ATOM
      1 O          -0.0583    0.9832   -1.4996 O.3     1  UNL1       -0.4799
      2 O           1.9144   -0.4610   -0.5817 O.3     1  UNL1       -0.4534
      3 O           0.2302    3.7195   -0.5719 O.3     1  UNL1       -0.5033
      4 O           3.0110   -2.2397    0.3941 O.2     1  UNL1       -0.2508
      5 O           7.8360   -0.4653    0.5996 O.3     1  UNL1       -0.4806
      6 O           6.5878    1.2337   -0.2475 O.2     1  UNL1       -0.2510
      7 N          -4.4908   -1.5005   -0.1947 N.3     1  UNL1       -0.3015
      8 C          -1.8151   -0.5522   -0.8013 C.3     1  UNL1        0.0491
      9 C          -2.0866   -1.6651    0.2225 C.3     1  UNL1        0.0064
     10 C          -3.4729   -1.3518    0.8735 C.3     1  UNL1        0.0213
     11 C          -0.3873   -0.4455   -1.3861 C.3     1  UNL1        0.1509
     12 C          -2.9057   -0.5828   -1.8902 C.3     1  UNL1       -0.0263
     13 C          -1.8373    0.7592   -0.0881 C.ar    1  UNL1        0.0116
     14 C          -3.4946    0.0274    1.6181 C.3     1  UNL1       -0.0110
     15 C          -4.3282   -0.5590   -1.3070 C.3     1  UNL1       -0.0001
     16 C          -2.6370    1.0930    0.9901 C.ar    1  UNL1       -0.0383
     17 C           0.6967   -1.2019   -0.5746 C.3     1  UNL1        0.1587
     18 C          -0.9497   -1.8075    1.2020 C.2     1  UNL1       -0.0788
     19 C          -0.8587    1.5968   -0.5742 C.ar    1  UNL1        0.1664
     20 C           0.3191   -1.5749    0.8344 C.2     1  UNL1       -0.0439
     21 C          -5.8616   -1.5026    0.3056 C.3     1  UNL1       -0.0124
     22 C          -2.5066    2.3842    1.5040 C.ar    1  UNL1       -0.0546
     23 C          -0.7169    2.8783   -0.0892 C.ar    1  UNL1        0.1588
     24 C          -1.5653    3.2762    0.9519 C.ar    1  UNL1       -0.0162
     25 C           3.0055   -1.1052   -0.0628 C.2     1  UNL1        0.3083
     26 C           4.2049   -0.1854   -0.1430 C.3     1  UNL1        0.0550
     27 C           5.4953   -0.8419    0.3327 C.3     1  UNL1        0.0548
     28 C           6.6717    0.0909    0.1831 C.2     1  UNL1        0.3052
     29 H          -2.1609   -2.6346   -0.2932 H       1  UNL1        0.0368
     30 H          -3.6755   -2.1319    1.6206 H       1  UNL1        0.0472
     31 H          -0.3617   -0.8329   -2.4129 H       1  UNL1        0.0783
     32 H          -2.7851   -1.4997   -2.4831 H       1  UNL1        0.0287
     33 H          -2.7957    0.2568   -2.5887 H       1  UNL1        0.0287
     34 H          -3.1046   -0.1426    2.6309 H       1  UNL1        0.0329
     35 H          -4.5153    0.4024    1.7417 H       1  UNL1        0.0329
     36 H          -4.5866    0.4615   -0.9983 H       1  UNL1        0.0427
     37 H          -5.0239   -0.8203   -2.1143 H       1  UNL1        0.0427
     38 H           0.8799   -2.1491   -1.1031 H       1  UNL1        0.0817
     39 H          -1.1654   -2.1281    2.2166 H       1  UNL1        0.0574
     40 H           1.0733   -1.7058    1.6031 H       1  UNL1        0.0607
     41 H          -6.1859   -0.5214    0.6661 H       1  UNL1        0.0391
     42 H          -5.9798   -2.2277    1.1182 H       1  UNL1        0.0391
     43 H          -6.5521   -1.8113   -0.4874 H       1  UNL1        0.0391
     44 H          -3.1097    2.7024    2.3502 H       1  UNL1        0.0622
     45 H          -1.4762    4.2757    1.3713 H       1  UNL1        0.0655
     46 H           0.7194    3.2583   -1.2754 H       1  UNL1        0.2923
     47 H           3.9922    0.7014    0.4655 H       1  UNL1        0.0383
     48 H           4.3160    0.1303   -1.1874 H       1  UNL1        0.0383
     49 H           5.6951   -1.7453   -0.2543 H       1  UNL1        0.0383
     50 H           5.4059   -1.1224    1.3880 H       1  UNL1        0.0383
     51 H           8.5913    0.1538    0.5071 H       1  UNL1        0.2951
@<TRIPOS>BOND
     1     1    11    1
     2     1    19    1
     3     2    17    1
     4     2    25    1
     5     3    23    1
     6     3    46    1
     7     4    25    2
     8     5    28    1
     9     5    51    1
    10     6    28    2
    11     7    10    1
    12     7    15    1
    13     7    21    1
    14     8     9    1
    15     8    11    1
    16     8    12    1
    17     8    13    1
    18     9    10    1
    19     9    18    1
    20     9    29    1
    21    10    14    1
    22    10    30    1
    23    11    17    1
    24    11    31    1
    25    12    15    1
    26    12    32    1
    27    12    33    1
    28    13    16   ar
    29    13    19   ar
    30    14    16    1
    31    14    34    1
    32    14    35    1
    33    15    36    1
    34    15    37    1
    35    16    22   ar
    36    17    20    1
    37    17    38    1
    38    18    20    2
    39    18    39    1
    40    19    23   ar
    41    20    40    1
    42    21    41    1
    43    21    42    1
    44    21    43    1
    45    22    24   ar
    46    22    44    1
    47    23    24   ar
    48    24    45    1
    49    25    26    1
    50    26    27    1
    51    26    47    1
    52    26    48    1
    53    27    28    1
    54    27    49    1
    55    27    50    1
@<TRIPOS>MOLECULE
12986624
 56 60 0 0 0
SMALL
GASTEIGER

@<TRIPOS>ATOM
      1 O          -0.4941    0.2952    1.5101 O.3     1  UNL1       -0.4799
      2 O          -1.8785   -1.6881    0.5256 O.3     1  UNL1       -0.4534
      3 O          -1.6503    2.8117    0.6375 O.3     1  UNL1       -0.4221
      4 O          -2.3268   -3.7011   -0.5089 O.2     1  UNL1       -0.2508
      5 O          -2.7798    1.5599   -0.9826 O.2     1  UNL1       -0.2504
      6 N           4.5188   -0.5730    0.2310 N.3     1  UNL1       -0.3015
      7 C           1.6743   -0.5649    0.8101 C.3     1  UNL1        0.0491
      8 C           2.3041   -1.5010   -0.2328 C.3     1  UNL1        0.0064
      9 C           3.5187   -0.7359   -0.8518 C.3     1  UNL1        0.0213
     10 C           0.2842   -0.9448    1.3713 C.3     1  UNL1        0.1509
     11 C           2.7044   -0.2672    1.9175 C.3     1  UNL1       -0.0263
     12 C           1.2745    0.7007    0.1262 C.ar    1  UNL1        0.0116
     13 C           3.0966    0.5944   -1.5656 C.3     1  UNL1       -0.0110
     14 C           4.0471    0.2343    1.3605 C.3     1  UNL1       -0.0001
     15 C           1.9322    1.3052   -0.9299 C.ar    1  UNL1       -0.0383
     16 C          -0.4857   -1.9914    0.5241 C.3     1  UNL1        0.1587
     17 C           1.2855   -1.9801   -1.2355 C.2     1  UNL1       -0.0788
     18 C           0.0715    1.1604    0.6129 C.ar    1  UNL1        0.1673
     19 C           0.0067   -2.1834   -0.8857 C.2     1  UNL1       -0.0439
     20 C           5.8202   -0.1150   -0.2445 C.3     1  UNL1       -0.0124
     21 C           1.3928    2.4967   -1.4177 C.ar    1  UNL1       -0.0545
     22 C          -0.4758    2.3381    0.1535 C.ar    1  UNL1        0.1733
     23 C           0.2066    3.0182   -0.8632 C.ar    1  UNL1       -0.0153
     24 C          -2.6940   -2.6386   -0.0266 C.2     1  UNL1        0.3075
     25 C          -4.1271   -2.1674    0.0536 C.3     1  UNL1        0.0421
     26 C          -2.7938    2.3360   -0.0368 C.2     1  UNL1        0.3122
     27 C          -5.0926   -3.1665   -0.5596 C.3     1  UNL1       -0.0552
     28 C          -4.0350    2.9304    0.5895 C.3     1  UNL1        0.0425
     29 C          -5.3046    2.4373   -0.0821 C.3     1  UNL1       -0.0552
     30 H           2.6855   -2.4066    0.2628 H       1  UNL1        0.0368
     31 H           3.9719   -1.3872   -1.6120 H       1  UNL1        0.0472
     32 H           0.3762   -1.3466    2.3888 H       1  UNL1        0.0783
     33 H           2.8837   -1.1888    2.4878 H       1  UNL1        0.0287
     34 H           2.3197    0.4718    2.6321 H       1  UNL1        0.0287
     35 H           2.7934    0.3335   -2.5886 H       1  UNL1        0.0329
     36 H           3.9403    1.2847   -1.6625 H       1  UNL1        0.0329
     37 H           3.9614    1.2911    1.0789 H       1  UNL1        0.0427
     38 H           4.7820    0.1926    2.1743 H       1  UNL1        0.0427
     39 H          -0.3552   -2.9602    1.0284 H       1  UNL1        0.0817
     40 H           1.6040   -2.1858   -2.2528 H       1  UNL1        0.0574
     41 H          -0.6560   -2.5324   -1.6703 H       1  UNL1        0.0607
     42 H           5.8102    0.9275   -0.5776 H       1  UNL1        0.0391
     43 H           6.1765   -0.7401   -1.0706 H       1  UNL1        0.0391
     44 H           6.5658   -0.2027    0.5538 H       1  UNL1        0.0391
     45 H           1.8673    3.0164   -2.2457 H       1  UNL1        0.0622
     46 H          -0.1989    3.9452   -1.2623 H       1  UNL1        0.0656
     47 H          -4.3828   -2.0141    1.1073 H       1  UNL1        0.0375
     48 H          -4.2078   -1.2131   -0.4776 H       1  UNL1        0.0375
     49 H          -5.0394   -4.1316   -0.0449 H       1  UNL1        0.0235
     50 H          -6.1201   -2.7967   -0.4884 H       1  UNL1        0.0235
     51 H          -4.8624   -3.3376   -1.6165 H       1  UNL1        0.0235
     52 H          -3.9762    4.0203    0.5036 H       1  UNL1        0.0375
     53 H          -4.0529    2.6534    1.6486 H       1  UNL1        0.0375
     54 H          -5.3900    1.3479   -0.0091 H       1  UNL1        0.0235
     55 H          -6.1846    2.8823    0.3922 H       1  UNL1        0.0235
     56 H          -5.3164    2.7032   -1.1443 H       1  UNL1        0.0235
@<TRIPOS>BOND
     1     1    10    1
     2     1    18    1
     3     2    16    1
     4     2    24    1
     5     3    22    1
     6     3    26    1
     7     4    24    2
     8     5    26    2
     9     6     9    1
    10     6    14    1
    11     6    20    1
    12     7     8    1
    13     7    10    1
    14     7    11    1
    15     7    12    1
    16     8     9    1
    17     8    17    1
    18     8    30    1
    19     9    13    1
    20     9    31    1
    21    10    16    1
    22    10    32    1
    23    11    14    1
    24    11    33    1
    25    11    34    1
    26    12    15   ar
    27    12    18   ar
    28    13    15    1
    29    13    35    1
    30    13    36    1
    31    14    37    1
    32    14    38    1
    33    15    21   ar
    34    16    19    1
    35    16    39    1
    36    17    19    2
    37    17    40    1
    38    18    22   ar
    39    19    41    1
    40    20    42    1
    41    20    43    1
    42    20    44    1
    43    21    23   ar
    44    21    45    1
    45    22    23   ar
    46    23    46    1
    47    24    25    1
    48    25    27    1
    49    25    47    1
    50    25    48    1
    51    26    28    1
    52    27    49    1
    53    27    50    1
    54    27    51    1
    55    28    29    1
    56    28    52    1
    57    28    53    1
    58    29    54    1
    59    29    55    1
    60    29    56    1
@<TRIPOS>MOLECULE
118701639
 43 47 0 0 0
SMALL
GASTEIGER

@<TRIPOS>ATOM
      1 O          -1.9130   -0.0810   -1.0805 O.3     1  UNL1       -0.4811
      2 O          -3.1214    1.6256    0.4835 O.3     1  UNL1       -0.3721
      3 O          -2.8853   -2.7604   -0.5272 O.3     1  UNL1       -0.5033
      4 N           3.2390    0.7283   -0.5143 N.3     1  UNL1       -0.3015
      5 C           0.3376    0.7170   -0.6008 C.3     1  UNL1        0.0480
      6 C           1.1304    1.4642    0.4825 C.3     1  UNL1        0.0064
      7 C           2.4384    0.6449    0.7312 C.3     1  UNL1        0.0213
      8 C          -1.1309    1.1405   -0.8383 C.3     1  UNL1        0.1401
      9 C           1.1644    0.6740   -1.9010 C.3     1  UNL1       -0.0263
     10 C           0.0694   -0.6695   -0.1158 C.ar    1  UNL1        0.0116
     11 C           2.1541   -0.8116    1.2361 C.3     1  UNL1       -0.0110
     12 C           2.5861    0.1300   -1.6830 C.3     1  UNL1       -0.0001
     13 C          -1.7510    1.9779    0.3107 C.3     1  UNL1        0.1140
     14 C           0.9027   -1.4356    0.6794 C.ar    1  UNL1       -0.0383
     15 C           0.2958    1.7053    1.7144 C.2     1  UNL1       -0.0799
     16 C          -1.1960   -1.0765   -0.4737 C.ar    1  UNL1        0.1663
     17 C          -1.0255    1.9202    1.6287 C.2     1  UNL1       -0.0557
     18 C           4.6057    0.2409   -0.3599 C.3     1  UNL1       -0.0124
     19 C           0.4629   -2.7179    1.0123 C.ar    1  UNL1       -0.0546
     20 C          -1.6485   -2.3403   -0.1644 C.ar    1  UNL1        0.1588
     21 C          -0.7971   -3.1722    0.5741 C.ar    1  UNL1       -0.0162
     22 C          -3.9175    2.0961   -0.5941 C.3     1  UNL1        0.0374
     23 H           1.4150    2.4613    0.1135 H       1  UNL1        0.0368
     24 H           3.0109    1.1589    1.5158 H       1  UNL1        0.0472
     25 H          -1.2091    1.7305   -1.7609 H       1  UNL1        0.0772
     26 H           1.2371    1.6927   -2.3053 H       1  UNL1        0.0287
     27 H           0.6678    0.0680   -2.6698 H       1  UNL1        0.0287
     28 H           2.0290   -0.7601    2.3263 H       1  UNL1        0.0329
     29 H           3.0065   -1.4739    1.0563 H       1  UNL1        0.0329
     30 H           2.5571   -0.9635   -1.5994 H       1  UNL1        0.0427
     31 H           3.1702    0.3530   -2.5847 H       1  UNL1        0.0427
     32 H          -1.7004    3.0388    0.0239 H       1  UNL1        0.0678
     33 H           0.7842    1.7469    2.6829 H       1  UNL1        0.0573
     34 H          -1.5848    2.1362    2.5345 H       1  UNL1        0.0596
     35 H           5.0941    0.7130    0.4995 H       1  UNL1        0.0391
     36 H           5.2027    0.5068   -1.2397 H       1  UNL1        0.0391
     37 H           4.6601   -0.8452   -0.2365 H       1  UNL1        0.0391
     38 H           1.0761   -3.3649    1.6339 H       1  UNL1        0.0622
     39 H          -1.1167   -4.1739    0.8526 H       1  UNL1        0.0655
     40 H          -4.9551    1.8149   -0.3916 H       1  UNL1        0.0524
     41 H          -3.6343    1.6558   -1.5531 H       1  UNL1        0.0524
     42 H          -3.8719    3.1881   -0.6578 H       1  UNL1        0.0524
     43 H          -3.0140   -3.6704   -0.2086 H       1  UNL1        0.2923
@<TRIPOS>BOND
     1     1     8    1
     2     1    16    1
     3     2    13    1
     4     2    22    1
     5     3    20    1
     6     3    43    1
     7     4     7    1
     8     4    12    1
     9     4    18    1
    10     5     6    1
    11     5     8    1
    12     5     9    1
    13     5    10    1
    14     6     7    1
    15     6    15    1
    16     6    23    1
    17     7    11    1
    18     7    24    1
    19     8    13    1
    20     8    25    1
    21     9    12    1
    22     9    26    1
    23     9    27    1
    24    10    14   ar
    25    10    16   ar
    26    11    14    1
    27    11    28    1
    28    11    29    1
    29    12    30    1
    30    12    31    1
    31    13    17    1
    32    13    32    1
    33    14    19   ar
    34    15    17    2
    35    15    33    1
    36    16    20   ar
    37    17    34    1
    38    18    35    1
    39    18    36    1
    40    18    37    1
    41    19    21   ar
    42    19    38    1
    43    20    21   ar
    44    21    39    1
    45    22    40    1
    46    22    41    1
    47    22    42    1
@<TRIPOS>MOLECULE
10097229
 68 74 0 0 0
SMALL
GASTEIGER

@<TRIPOS>ATOM
      1 O           0.9468    1.0524   -0.6021 O.3     1  UNL1       -0.4810
      2 O           1.5782    3.5135    0.0011 O.3     1  UNL1       -0.3841
      3 O          -0.9450    0.0310    1.3495 O.3     1  UNL1       -0.4213
      4 O          -1.5235   -1.7933    0.0215 O.2     1  UNL1       -0.2490
      5 N           5.4521   -1.5823   -1.1311 N.3     1  UNL1       -0.3015
      6 C           3.2422    0.2805   -0.8617 C.3     1  UNL1        0.0480
      7 C           4.6712    0.6210   -0.4120 C.3     1  UNL1        0.0064
      8 C           5.3252   -0.7161    0.0659 C.3     1  UNL1        0.0213
      9 C           2.2670    1.4551   -1.1095 C.3     1  UNL1        0.1399
     10 C           3.3002   -0.7070   -2.0439 C.3     1  UNL1       -0.0263
     11 C           2.5210   -0.3381    0.2900 C.ar    1  UNL1        0.0116
     12 C           4.5637   -1.3656    1.2724 C.3     1  UNL1       -0.0110
     13 C           4.1697   -1.9397   -1.7459 C.3     1  UNL1       -0.0001
     14 C           3.0738   -1.1528    1.2617 C.ar    1  UNL1       -0.0383
     15 C           2.7140    2.8028   -0.4853 C.3     1  UNL1        0.1110
     16 C           4.6822    1.7274    0.6117 C.2     1  UNL1       -0.0799
     17 C           1.2155    0.0962    0.3397 C.ar    1  UNL1        0.1673
     18 C           3.7712    2.7115    0.5828 C.2     1  UNL1       -0.0559
     19 C           2.2157   -1.6366    2.2506 C.ar    1  UNL1       -0.0545
     20 C           6.2836   -2.7609   -0.9097 C.3     1  UNL1       -0.0124
     21 C           0.3478   -0.3742    1.3006 C.ar    1  UNL1        0.1734
     22 C           0.8565   -1.2639    2.2554 C.ar    1  UNL1       -0.0153
     23 C          -1.8530   -0.7804    0.6287 C.2     1  UNL1        0.3272
     24 C          -3.3053   -0.2437    0.7398 C.3     1  UNL1        0.1150
     25 C          -3.5783   -0.2468    2.2738 C.3     1  UNL1       -0.0412
     26 C          -4.2532   -1.1925   -0.0360 C.ar    1  UNL1       -0.0265
     27 C          -3.4563    1.1978    0.1946 C.ar    1  UNL1       -0.0265
     28 C          -4.0813   -1.3036   -1.3875 C.ar    1  UNL1       -0.0572
     29 C          -4.3925    2.0075    0.7754 C.ar    1  UNL1       -0.0572
     30 C          -5.2079   -1.8644    0.6748 C.ar    1  UNL1       -0.0572
     31 C          -2.6454    1.5803   -0.8376 C.ar    1  UNL1       -0.0572
     32 C          -4.9350   -2.1574   -2.0861 C.ar    1  UNL1       -0.0615
     33 C          -4.5290    3.3058    0.2840 C.ar    1  UNL1       -0.0615
     34 C          -6.0616   -2.7183   -0.0238 C.ar    1  UNL1       -0.0615
     35 C          -2.7817    2.8786   -1.3290 C.ar    1  UNL1       -0.0615
     36 C          -5.9250   -2.8647   -1.4042 C.ar    1  UNL1       -0.0617
     37 C          -3.7236    3.7413   -0.7683 C.ar    1  UNL1       -0.0617
     38 H           5.2500    0.9992   -1.2682 H       1  UNL1        0.0368
     39 H           6.3447   -0.4870    0.4057 H       1  UNL1        0.0472
     40 H           2.1286    1.6205   -2.1858 H       1  UNL1        0.0772
     41 H           3.7172   -0.1865   -2.9167 H       1  UNL1        0.0287
     42 H           2.2959   -1.0437   -2.3320 H       1  UNL1        0.0287
     43 H           4.9477   -0.8988    2.1897 H       1  UNL1        0.0329
     44 H           4.7819   -2.4346    1.3579 H       1  UNL1        0.0329
     45 H           3.6137   -2.6429   -1.1135 H       1  UNL1        0.0427
     46 H           4.3494   -2.4584   -2.6960 H       1  UNL1        0.0427
     47 H           3.1485    3.4214   -1.2815 H       1  UNL1        0.0675
     48 H           5.4692    1.7470    1.3591 H       1  UNL1        0.0573
     49 H           3.8401    3.5157    1.3097 H       1  UNL1        0.0596
     50 H           2.5941   -2.2814    3.0392 H       1  UNL1        0.0622
     51 H           5.8101   -3.5007   -0.2567 H       1  UNL1        0.0391
     52 H           7.2495   -2.4814   -0.4749 H       1  UNL1        0.0391
     53 H           6.5044   -3.2516   -1.8644 H       1  UNL1        0.0391
     54 H           0.2069   -1.6478    3.0388 H       1  UNL1        0.0656
     55 H           0.9307    3.5604   -0.7231 H       1  UNL1        0.2104
     56 H          -4.6138   -0.0337    2.5576 H       1  UNL1        0.0247
     57 H          -3.3184   -1.2178    2.7173 H       1  UNL1        0.0247
     58 H          -2.9593    0.4974    2.7926 H       1  UNL1        0.0247
     59 H          -3.3099   -0.7862   -1.9434 H       1  UNL1        0.0621
     60 H          -5.0615    1.7038    1.5697 H       1  UNL1        0.0621
     61 H          -5.3568   -1.8036    1.7440 H       1  UNL1        0.0621
     62 H          -1.9049    0.9330   -1.2931 H       1  UNL1        0.0621
     63 H          -4.8257   -2.2758   -3.1602 H       1  UNL1        0.0618
     64 H          -5.2674    3.9756    0.7150 H       1  UNL1        0.0618
     65 H          -6.8310   -3.2720    0.5067 H       1  UNL1        0.0618
     66 H          -2.1541    3.2181   -2.1479 H       1  UNL1        0.0618
     67 H          -6.5885   -3.5310   -1.9478 H       1  UNL1        0.0618
     68 H          -3.8308    4.7516   -1.1520 H       1  UNL1        0.0618
@<TRIPOS>BOND
     1     1     9    1
     2     1    17    1
     3     2    15    1
     4     2    55    1
     5     3    21    1
     6     3    23    1
     7     4    23    2
     8     5     8    1
     9     5    13    1
    10     5    20    1
    11     6     7    1
    12     6     9    1
    13     6    10    1
    14     6    11    1
    15     7     8    1
    16     7    16    1
    17     7    38    1
    18     8    12    1
    19     8    39    1
    20     9    15    1
    21     9    40    1
    22    10    13    1
    23    10    41    1
    24    10    42    1
    25    11    14   ar
    26    11    17   ar
    27    12    14    1
    28    12    43    1
    29    12    44    1
    30    13    45    1
    31    13    46    1
    32    14    19   ar
    33    15    18    1
    34    15    47    1
    35    16    18    2
    36    16    48    1
    37    17    21   ar
    38    18    49    1
    39    19    22   ar
    40    19    50    1
    41    20    51    1
    42    20    52    1
    43    20    53    1
    44    21    22   ar
    45    22    54    1
    46    23    24    1
    47    24    25    1
    48    24    26    1
    49    24    27    1
    50    25    56    1
    51    25    57    1
    52    25    58    1
    53    26    28   ar
    54    26    30   ar
    55    27    29   ar
    56    27    31   ar
    57    28    32   ar
    58    28    59    1
    59    29    33   ar
    60    29    60    1
    61    30    34   ar
    62    30    61    1
    63    31    35   ar
    64    31    62    1
    65    32    36   ar
    66    32    63    1
    67    33    37   ar
    68    33    64    1
    69    34    36   ar
    70    34    65    1
    71    35    37   ar
    72    35    66    1
    73    36    67    1
    74    37    68    1
@<TRIPOS>MOLECULE
50940757
 48 52 0 0 0
SMALL
GASTEIGER

@<TRIPOS>ATOM
      1 S          -3.1165    2.8136    0.1729 S.O2    1  UNL1        0.2082
      2 S          -3.0908   -2.4278    0.0461 S.O2    1  UNL1        0.2514
      3 O          -0.6436   -0.1775   -1.4222 O.3     1  UNL1       -0.4809
      4 O          -2.0142    1.6581   -0.1687 O.3     1  UNL1       -0.2046
      5 O          -1.7091   -2.7988   -0.7695 O.3     1  UNL1       -0.3213
      6 O          -4.5343    2.1293   -0.2549 O.3     1  UNL1       -0.2311
      7 O          -3.1323    2.9873    1.6135 O.2     1  UNL1       -0.1180
      8 O          -2.8910    3.9534   -0.6964 O.2     1  UNL1       -0.1180
      9 O          -4.2477   -3.2571   -0.7529 O.3     1  UNL1       -0.2222
     10 O          -3.0024   -2.9681    1.3903 O.2     1  UNL1       -0.1077
     11 O          -3.3571   -1.0146   -0.1504 O.2     1  UNL1       -0.1077
     12 N           4.4093    0.6682   -0.2946 N.3     1  UNL1       -0.3015
     13 C           1.5405    0.6546   -0.7373 C.3     1  UNL1        0.0481
     14 C           2.2033    1.4899    0.3687 C.3     1  UNL1        0.0064
     15 C           3.4607    0.6924    0.8451 C.3     1  UNL1        0.0213
     16 C           0.1176    1.0588   -1.1891 C.3     1  UNL1        0.1425
     17 C           2.5202    0.4997   -1.9172 C.3     1  UNL1       -0.0263
     18 C           1.1979   -0.6852   -0.1741 C.ar    1  UNL1        0.0117
     19 C           3.0988   -0.7152    1.4319 C.3     1  UNL1       -0.0110
     20 C           3.8976   -0.0262   -1.4804 C.3     1  UNL1       -0.0001
     21 C          -0.6287    1.9920   -0.2001 C.3     1  UNL1        0.1454
     22 C           1.9179   -1.3822    0.7796 C.ar    1  UNL1       -0.0383
     23 C           1.2267    1.8363    1.4634 C.2     1  UNL1       -0.0798
     24 C          -0.0188   -1.1190   -0.6500 C.ar    1  UNL1        0.1695
     25 C          -0.0713    2.0454    1.1976 C.2     1  UNL1       -0.0533
     26 C           1.4249   -2.6308    1.1624 C.ar    1  UNL1       -0.0545
     27 C           5.7406    0.1934    0.0678 C.3     1  UNL1       -0.0124
     28 C          -0.5212   -2.3511   -0.2935 C.ar    1  UNL1        0.2004
     29 C           0.2228   -3.1186    0.6119 C.ar    1  UNL1       -0.0130
     30 H           2.5432    2.4515   -0.0450 H       1  UNL1        0.0368
     31 H           3.9388    1.2703    1.6483 H       1  UNL1        0.0472
     32 H           0.1515    1.5675   -2.1613 H       1  UNL1        0.0772
     33 H           2.1145   -0.1687   -2.6877 H       1  UNL1        0.0287
     34 H           2.6543    1.4802   -2.3939 H       1  UNL1        0.0287
     35 H           3.9588   -1.3919    1.4152 H       1  UNL1        0.0329
     36 H           2.8414   -0.5710    2.4901 H       1  UNL1        0.0329
     37 H           4.5908    0.1183   -2.3187 H       1  UNL1        0.0427
     38 H           3.8453   -1.1085   -1.3092 H       1  UNL1        0.0427
     39 H          -0.5231    3.0108   -0.5974 H       1  UNL1        0.0703
     40 H           1.5930    1.9571    2.4782 H       1  UNL1        0.0573
     41 H          -0.7166    2.3328    2.0204 H       1  UNL1        0.0596
     42 H           1.9492   -3.2238    1.9070 H       1  UNL1        0.0622
     43 H           5.7662   -0.8784    0.2880 H       1  UNL1        0.0391
     44 H           6.4444    0.3825   -0.7508 H       1  UNL1        0.0391
     45 H           6.1255    0.7362    0.9381 H       1  UNL1        0.0391
     46 H          -0.1446   -4.0923    0.9277 H       1  UNL1        0.0656
     47 H          -5.3324    2.6915   -0.1171 H       1  UNL1        0.2469
     48 H          -5.1617   -3.1532   -0.3979 H       1  UNL1        0.2479
@<TRIPOS>BOND
     1     1     4    1
     2     1     6    1
     3     1     7    2
     4     1     8    2
     5     2     5    1
     6     2     9    1
     7     2    10    2
     8     2    11    2
     9     3    16    1
    10     3    24    1
    11     4    21    1
    12     5    28    1
    13     6    47    1
    14     9    48    1
    15    12    15    1
    16    12    20    1
    17    12    27    1
    18    13    14    1
    19    13    16    1
    20    13    17    1
    21    13    18    1
    22    14    15    1
    23    14    23    1
    24    14    30    1
    25    15    19    1
    26    15    31    1
    27    16    21    1
    28    16    32    1
    29    17    20    1
    30    17    33    1
    31    17    34    1
    32    18    22   ar
    33    18    24   ar
    34    19    22    1
    35    19    35    1
    36    19    36    1
    37    20    37    1
    38    20    38    1
    39    21    25    1
    40    21    39    1
    41    22    26   ar
    42    23    25    2
    43    23    40    1
    44    24    28   ar
    45    25    41    1
    46    26    29   ar
    47    26    42    1
    48    27    43    1
    49    27    44    1
    50    27    45    1
    51    28    29   ar
    52    29    46    1
@<TRIPOS>MOLECULE
5479215
 40 44 0 0 0
SMALL
GASTEIGER

@<TRIPOS>ATOM
      1 O           1.9856   -0.4708    1.2186 O.3     1  UNL1       -0.4811
      2 O           2.7811   -2.4822   -0.2576 O.3     1  UNL1       -0.3841
      3 O           3.6224    1.8377    0.5626 O.3     1  UNL1       -0.5033
      4 N          -3.1768    0.0064    0.4473 N.3     1  UNL1       -0.3015
      5 C          -0.3732   -0.7126    0.6682 C.3     1  UNL1        0.0480
      6 C          -1.2984   -1.3094   -0.4027 C.3     1  UNL1        0.0064
      7 C          -2.3448   -0.2048   -0.7621 C.3     1  UNL1        0.0213
      8 C           0.9322   -1.4728    0.9974 C.3     1  UNL1        0.1399
      9 C          -1.2001   -0.3724    1.9240 C.3     1  UNL1       -0.0263
     10 C           0.2533    0.5254    0.1167 C.ar    1  UNL1        0.0116
     11 C          -1.6814    1.0915   -1.3421 C.3     1  UNL1       -0.0110
     12 C          -2.4278    0.4982    1.6079 C.3     1  UNL1       -0.0001
     13 C          -0.3318    1.4190   -0.7619 C.ar    1  UNL1       -0.0383
     14 C           1.3675   -2.5012   -0.0799 C.3     1  UNL1        0.1110
     15 C          -0.5201   -1.8433   -1.5774 C.2     1  UNL1       -0.0799
     16 C           1.5666    0.6279    0.5172 C.ar    1  UNL1        0.1663
     17 C           0.7034   -2.3703   -1.4227 C.2     1  UNL1       -0.0559
     18 C          -4.3666    0.8142    0.1997 C.3     1  UNL1       -0.0124
     19 C           0.4288    2.5250   -1.1447 C.ar    1  UNL1       -0.0546
     20 C           2.3337    1.7147    0.1601 C.ar    1  UNL1        0.1588
     21 C           1.7465    2.6797   -0.6686 C.ar    1  UNL1       -0.0162
     22 H          -1.8399   -2.1724    0.0137 H       1  UNL1        0.0368
     23 H          -3.0064   -0.6113   -1.5396 H       1  UNL1        0.0472
     24 H           0.8337   -2.0119    1.9485 H       1  UNL1        0.0772
     25 H          -0.5886    0.1393    2.6785 H       1  UNL1        0.0287
     26 H          -1.5433   -1.3091    2.3838 H       1  UNL1        0.0287
     27 H          -2.3424    1.9586   -1.2476 H       1  UNL1        0.0329
     28 H          -1.5369    0.9305   -2.4191 H       1  UNL1        0.0329
     29 H          -3.0766    0.4935    2.4928 H       1  UNL1        0.0427
     30 H          -2.1170    1.5401    1.4614 H       1  UNL1        0.0427
     31 H           1.1136   -3.5020    0.2935 H       1  UNL1        0.0675
     32 H          -0.9815   -1.8400   -2.5601 H       1  UNL1        0.0573
     33 H           1.2051   -2.7871   -2.2917 H       1  UNL1        0.0596
     34 H          -5.0384    0.7714    1.0646 H       1  UNL1        0.0391
     35 H          -4.9338    0.4236   -0.6522 H       1  UNL1        0.0391
     36 H          -4.1355    1.8670    0.0094 H       1  UNL1        0.0391
     37 H           0.0209    3.2609   -1.8326 H       1  UNL1        0.0622
     38 H           2.3179    3.5487   -0.9869 H       1  UNL1        0.0655
     39 H           3.0187   -3.2101   -0.8573 H       1  UNL1        0.2104
     40 H           3.9874    2.6629    0.1995 H       1  UNL1        0.2923
@<TRIPOS>BOND
     1     1     8    1
     2     1    16    1
     3     2    14    1
     4     2    39    1
     5     3    20    1
     6     3    40    1
     7     4     7    1
     8     4    12    1
     9     4    18    1
    10     5     6    1
    11     5     8    1
    12     5     9    1
    13     5    10    1
    14     6     7    1
    15     6    15    1
    16     6    22    1
    17     7    11    1
    18     7    23    1
    19     8    14    1
    20     8    24    1
    21     9    12    1
    22     9    25    1
    23     9    26    1
    24    10    13   ar
    25    10    16   ar
    26    11    13    1
    27    11    27    1
    28    11    28    1
    29    12    29    1
    30    12    30    1
    31    13    19   ar
    32    14    17    1
    33    14    31    1
    34    15    17    2
    35    15    32    1
    36    16    20   ar
    37    17    33    1
    38    18    34    1
    39    18    35    1
    40    18    36    1
    41    19    21   ar
    42    19    37    1
    43    20    21   ar
    44    21    38    1
@<TRIPOS>MOLECULE
44153487
 60 65 0 0 0
SMALL
GASTEIGER

@<TRIPOS>ATOM
      1 O          -0.6134    1.2839   -0.6526 O.3     1  UNL1       -0.4811
      2 O           1.1930    0.1432    0.8490 O.3     1  UNL1       -0.3377
      3 O          -1.2483    3.9077    0.4174 O.3     1  UNL1       -0.5033
      4 O           3.3020   -0.8207    0.5861 O.3     1  UNL1       -0.3315
      5 O           2.0698    2.4522   -0.5444 O.3     1  UNL1       -0.3841
      6 O           4.1187    1.3937   -2.0878 O.3     1  UNL1       -0.3864
      7 O           6.4208    0.3927   -0.9251 O.3     1  UNL1       -0.3860
      8 O           6.5136   -2.1216    0.0296 O.3     1  UNL1       -0.4788
      9 O           4.9497   -2.4418    1.6567 O.2     1  UNL1       -0.2480
     10 N          -4.5856   -2.1141   -1.0924 N.3     1  UNL1       -0.3015
     11 C          -2.1313   -0.6206   -0.6782 C.3     1  UNL1        0.0480
     12 C          -2.4883   -1.8699    0.1417 C.3     1  UNL1        0.0064
     13 C          -0.6477   -0.1848   -0.7160 C.3     1  UNL1        0.1402
     14 C          -4.0460   -1.8952    0.2716 C.3     1  UNL1        0.0213
     15 C          -2.7557   -0.7355   -2.0827 C.3     1  UNL1       -0.0263
     16 C          -2.6732    0.5774    0.0291 C.ar    1  UNL1        0.0116
     17 C          -4.6127   -0.6344    1.0106 C.3     1  UNL1       -0.0110
     18 C          -4.2619   -1.0428   -2.0398 C.3     1  UNL1       -0.0001
     19 C           0.2330   -0.8090    0.3978 C.3     1  UNL1        0.1175
     20 C          -3.8423    0.6352    0.7663 C.ar    1  UNL1       -0.0383
     21 C          -1.7472   -1.9030    1.4539 C.2     1  UNL1       -0.0799
     22 C          -1.7912    1.6316   -0.0483 C.ar    1  UNL1        0.1663
     23 C          -0.5099   -1.3979    1.5675 C.2     1  UNL1       -0.0556
     24 C          -6.0106   -2.4279   -1.1096 C.3     1  UNL1       -0.0124
     25 C          -4.1728    1.8639    1.3405 C.ar    1  UNL1       -0.0546
     26 C          -2.0993    2.8560    0.5026 C.ar    1  UNL1        0.1588
     27 C          -3.3142    2.9714    1.1903 C.ar    1  UNL1       -0.0162
     28 C           2.3716    0.1166    0.0437 C.3     1  UNL1        0.1893
     29 C           2.9739    1.5259    0.0488 C.3     1  UNL1        0.1342
     30 C           4.3178    1.5690   -0.6820 C.3     1  UNL1        0.1145
     31 C           5.2380    0.4726   -0.1381 C.3     1  UNL1        0.1201
     32 C           4.5296   -0.8812   -0.1358 C.3     1  UNL1        0.1859
     33 C           5.3200   -1.8929    0.6296 C.2     1  UNL1        0.3367
     34 H          -2.1746   -2.7736   -0.4024 H       1  UNL1        0.0368
     35 H          -0.1981   -0.4470   -1.6824 H       1  UNL1        0.0772
     36 H          -4.3174   -2.7763    0.8694 H       1  UNL1        0.0472
     37 H          -2.2487   -1.5430   -2.6280 H       1  UNL1        0.0287
     38 H          -2.5983    0.1812   -2.6657 H       1  UNL1        0.0287
     39 H          -4.5616   -0.8381    2.0888 H       1  UNL1        0.0329
     40 H          -5.6701   -0.4731    0.7790 H       1  UNL1        0.0329
     41 H          -4.8214   -0.1289   -1.8049 H       1  UNL1        0.0427
     42 H          -4.5704   -1.3399   -3.0500 H       1  UNL1        0.0427
     43 H           0.7575   -1.6760   -0.0326 H       1  UNL1        0.0679
     44 H          -2.2109   -2.3837    2.3097 H       1  UNL1        0.0573
     45 H           0.0097   -1.4824    2.5177 H       1  UNL1        0.0596
     46 H          -6.2386   -3.2468   -0.4186 H       1  UNL1        0.0391
     47 H          -6.3090   -2.7719   -2.1064 H       1  UNL1        0.0391
     48 H          -6.6396   -1.5704   -0.8510 H       1  UNL1        0.0391
     49 H          -5.0797    1.9687    1.9299 H       1  UNL1        0.0622
     50 H          -3.5941    3.9153    1.6526 H       1  UNL1        0.0655
     51 H           2.1163   -0.1683   -0.9852 H       1  UNL1        0.0938
     52 H           3.1232    1.8396    1.0900 H       1  UNL1        0.0671
     53 H           4.7855    2.5535   -0.5724 H       1  UNL1        0.0648
     54 H          -1.6442    4.6700    0.8740 H       1  UNL1        0.2923
     55 H           5.5317    0.7341    0.8868 H       1  UNL1        0.0652
     56 H           4.3503   -1.2828   -1.1400 H       1  UNL1        0.0741
     57 H           2.4877    3.3297   -0.5149 H       1  UNL1        0.2101
     58 H           3.7368    0.5158   -2.2466 H       1  UNL1        0.2100
     59 H           6.8391    1.2704   -0.9145 H       1  UNL1        0.2100
     60 H           7.0487   -2.7826    0.5184 H       1  UNL1        0.2951
@<TRIPOS>BOND
     1     1    13    1
     2     1    22    1
     3     2    19    1
     4     2    28    1
     5     3    26    1
     6     3    54    1
     7     4    28    1
     8     4    32    1
     9     5    29    1
    10     5    57    1
    11     6    30    1
    12     6    58    1
    13     7    31    1
    14     7    59    1
    15     8    33    1
    16     8    60    1
    17     9    33    2
    18    10    14    1
    19    10    18    1
    20    10    24    1
    21    11    12    1
    22    11    13    1
    23    11    15    1
    24    11    16    1
    25    12    14    1
    26    12    21    1
    27    12    34    1
    28    13    19    1
    29    13    35    1
    30    14    17    1
    31    14    36    1
    32    15    18    1
    33    15    37    1
    34    15    38    1
    35    16    20   ar
    36    16    22   ar
    37    17    20    1
    38    17    39    1
    39    17    40    1
    40    18    41    1
    41    18    42    1
    42    19    23    1
    43    19    43    1
    44    20    25   ar
    45    21    23    2
    46    21    44    1
    47    22    26   ar
    48    23    45    1
    49    24    46    1
    50    24    47    1
    51    24    48    1
    52    25    27   ar
    53    25    49    1
    54    26    27   ar
    55    27    50    1
    56    28    29    1
    57    28    51    1
    58    29    30    1
    59    29    52    1
    60    30    31    1
    61    30    53    1
    62    31    32    1
    63    31    55    1
    64    32    33    1
    65    32    56    1
@<TRIPOS>MOLECULE
281723
 43 47 0 0 0
SMALL
GASTEIGER

@<TRIPOS>ATOM
      1 O           1.5827    1.1784    1.2029 O.3     1  UNL1       -0.4811
      2 O          -0.1611    3.7693   -0.0303 O.3     1  UNL1       -0.3721
      3 O           4.1950   -0.0323    0.7107 O.3     1  UNL1       -0.5033
      4 N          -2.4705   -2.0131    0.3942 N.3     1  UNL1       -0.3015
      5 C          -0.5302    0.2029    0.5541 C.3     1  UNL1        0.0480
      6 C          -1.6381    0.1877   -0.5014 C.3     1  UNL1        0.0064
      7 C          -1.9410   -1.3131   -0.8069 C.3     1  UNL1        0.0213
      8 C           0.2029    1.5357    0.8061 C.3     1  UNL1        0.1401
      9 C          -1.0779   -0.4500    1.8416 C.3     1  UNL1       -0.0263
     10 C           0.6496   -0.5677    0.0687 C.ar    1  UNL1        0.0116
     11 C          -0.6941   -2.0845   -1.3672 C.3     1  UNL1       -0.0110
     12 C          -1.6217   -1.8684    1.5876 C.3     1  UNL1       -0.0001
     13 C           0.3010    2.4753   -0.4270 C.3     1  UNL1        0.1140
     14 C           0.6226   -1.6629   -0.7730 C.ar    1  UNL1       -0.0383
     15 C          -1.3083    1.0208   -1.7071 C.2     1  UNL1       -0.0799
     16 C           1.8169    0.0031    0.5303 C.ar    1  UNL1        0.1663
     17 C          -0.4554    2.0523   -1.6555 C.2     1  UNL1       -0.0557
     18 C          -3.8569   -1.6462    0.6843 C.3     1  UNL1       -0.0124
     19 C           1.8497   -2.2516   -1.0782 C.ar    1  UNL1       -0.0546
     20 C           3.0374   -0.5694    0.2546 C.ar    1  UNL1        0.1588
     21 C           3.0455   -1.7168   -0.5518 C.ar    1  UNL1       -0.0162
     22 C          -1.5481    3.7507    0.2633 C.3     1  UNL1        0.0374
     23 H          -2.5431    0.6522   -0.0876 H       1  UNL1        0.0368
     24 H          -2.7078   -1.3773   -1.5914 H       1  UNL1        0.0472
     25 H          -0.1999    2.0461    1.6872 H       1  UNL1        0.0772
     26 H          -1.8830    0.1770    2.2464 H       1  UNL1        0.0287
     27 H          -0.3066   -0.5047    2.6207 H       1  UNL1        0.0287
     28 H          -0.6400   -1.8946   -2.4474 H       1  UNL1        0.0329
     29 H          -0.8300   -3.1661   -1.2426 H       1  UNL1        0.0329
     30 H          -0.7777   -2.5625    1.4909 H       1  UNL1        0.0427
     31 H          -2.1521   -2.2170    2.4833 H       1  UNL1        0.0427
     32 H           1.3517    2.6069   -0.7114 H       1  UNL1        0.0678
     33 H          -1.8312    0.8133   -2.6362 H       1  UNL1        0.0573
     34 H          -0.2934    2.6359   -2.5584 H       1  UNL1        0.0596
     35 H          -3.9672   -0.6116    1.0233 H       1  UNL1        0.0391
     36 H          -4.2654   -2.2997    1.4636 H       1  UNL1        0.0391
     37 H          -4.4904   -1.7905   -0.1978 H       1  UNL1        0.0391
     38 H           1.8964   -3.1157   -1.7356 H       1  UNL1        0.0622
     39 H           3.9904   -2.1923   -0.8050 H       1  UNL1        0.0655
     40 H          -1.8754    2.9444    0.9233 H       1  UNL1        0.0524
     41 H          -2.1434    3.7461   -0.6554 H       1  UNL1        0.0524
     42 H          -1.7804    4.6910    0.7741 H       1  UNL1        0.0524
     43 H           3.9795    0.7577    1.2365 H       1  UNL1        0.2923
@<TRIPOS>BOND
     1     1     8    1
     2     1    16    1
     3     2    13    1
     4     2    22    1
     5     3    20    1
     6     3    43    1
     7     4     7    1
     8     4    12    1
     9     4    18    1
    10     5     6    1
    11     5     8    1
    12     5     9    1
    13     5    10    1
    14     6     7    1
    15     6    15    1
    16     6    23    1
    17     7    11    1
    18     7    24    1
    19     8    13    1
    20     8    25    1
    21     9    12    1
    22     9    26    1
    23     9    27    1
    24    10    14   ar
    25    10    16   ar
    26    11    14    1
    27    11    28    1
    28    11    29    1
    29    12    30    1
    30    12    31    1
    31    13    17    1
    32    13    32    1
    33    14    19   ar
    34    15    17    2
    35    15    33    1
    36    16    20   ar
    37    17    34    1
    38    18    35    1
    39    18    36    1
    40    18    37    1
    41    19    21   ar
    42    19    38    1
    43    20    21   ar
    44    21    39    1
    45    22    40    1
    46    22    41    1
    47    22    42    1
@<TRIPOS>MOLECULE
6428288
 53 57 0 0 0
SMALL
GASTEIGER

@<TRIPOS>ATOM
      1 O          -0.7155    0.0408    1.4826 O.3     1  UNL1       -0.4799
      2 O          -1.7890   -2.0897    0.4204 O.3     1  UNL1       -0.4536
      3 O          -2.2073    2.3915    0.6583 O.3     1  UNL1       -0.4221
      4 O          -1.9371   -4.1169   -0.6773 O.2     1  UNL1       -0.2511
      5 O          -3.1243    1.0398   -1.0148 O.2     1  UNL1       -0.2504
      6 N           4.3869   -0.0669    0.2692 N.3     1  UNL1       -0.3015
      7 C           1.5628   -0.4809    0.7980 C.3     1  UNL1        0.0491
      8 C           2.3339   -1.2867   -0.2586 C.3     1  UNL1        0.0064
      9 C           3.4352   -0.3387   -0.8351 C.3     1  UNL1        0.0213
     10 C           0.2336   -1.0711    1.3241 C.3     1  UNL1        0.1509
     11 C           2.5247   -0.0722    1.9311 C.3     1  UNL1       -0.0263
     12 C           0.9957    0.7344    0.1417 C.ar    1  UNL1        0.0116
     13 C           2.8372    0.9383   -1.5199 C.3     1  UNL1       -0.0110
     14 C           3.7894    0.6315    1.4117 C.3     1  UNL1       -0.0001
     15 C           1.5746    1.4572   -0.8858 C.ar    1  UNL1       -0.0383
     16 C          -0.3673   -2.1914    0.4353 C.3     1  UNL1        0.1587
     17 C           1.4080   -1.8763   -1.2917 C.2     1  UNL1       -0.0788
     18 C          -0.2672    1.0036    0.6193 C.ar    1  UNL1        0.1673
     19 C           0.1667   -2.2698   -0.9702 C.2     1  UNL1       -0.0439
     20 C           5.6158    0.5855   -0.1706 C.3     1  UNL1       -0.0124
     21 C           0.8772    2.5735   -1.3506 C.ar    1  UNL1       -0.0545
     22 C          -0.9708    2.1044    0.1825 C.ar    1  UNL1        0.1733
     23 C          -0.3787    2.9043   -0.8032 C.ar    1  UNL1       -0.0153
     24 C          -2.4502   -3.1283   -0.1708 C.2     1  UNL1        0.3046
     25 C          -3.2619    1.7779   -0.0487 C.2     1  UNL1        0.3122
     26 C          -3.9282   -2.8867   -0.1125 C.3     1  UNL1        0.0333
     27 C          -4.5837    2.1709    0.5714 C.3     1  UNL1        0.0425
     28 C          -5.7606    1.5219   -0.1356 C.3     1  UNL1       -0.0552
     29 H           2.8340   -2.1430    0.2190 H       1  UNL1        0.0368
     30 H           3.9871   -0.8962   -1.6046 H       1  UNL1        0.0472
     31 H           0.3682   -1.4854    2.3317 H       1  UNL1        0.0783
     32 H           2.8260   -0.9751    2.4793 H       1  UNL1        0.0287
     33 H           2.0287    0.5833    2.6585 H       1  UNL1        0.0287
     34 H           2.5882    0.6671   -2.5548 H       1  UNL1        0.0329
     35 H           3.5748    1.7443   -1.5832 H       1  UNL1        0.0329
     36 H           3.5575    1.6731    1.1573 H       1  UNL1        0.0427
     37 H           4.5115    0.6710    2.2369 H       1  UNL1        0.0427
     38 H          -0.1065   -3.1462    0.9153 H       1  UNL1        0.0817
     39 H           1.7665   -2.0050   -2.3084 H       1  UNL1        0.0574
     40 H          -0.4285   -2.6874   -1.7753 H       1  UNL1        0.0607
     41 H           5.4616    1.6253   -0.4755 H       1  UNL1        0.0391
     42 H           6.0690    0.0420   -1.0069 H       1  UNL1        0.0391
     43 H           6.3554    0.5814    0.6381 H       1  UNL1        0.0391
     44 H           1.2839    3.1795   -2.1557 H       1  UNL1        0.0622
     45 H          -0.9070    3.7754   -1.1841 H       1  UNL1        0.0656
     46 H          -4.1747   -1.9701   -0.6543 H       1  UNL1        0.0342
     47 H          -4.2514   -2.8168    0.9291 H       1  UNL1        0.0342
     48 H          -4.4517   -3.7227   -0.5849 H       1  UNL1        0.0342
     49 H          -4.6800    3.2601    0.5162 H       1  UNL1        0.0375
     50 H          -4.5762    1.8632    1.6222 H       1  UNL1        0.0375
     51 H          -5.6903    0.4298   -0.0938 H       1  UNL1        0.0235
     52 H          -6.7014    1.8229    0.3351 H       1  UNL1        0.0235
     53 H          -5.7959    1.8147   -1.1902 H       1  UNL1        0.0235
@<TRIPOS>BOND
     1     1    10    1
     2     1    18    1
     3     2    16    1
     4     2    24    1
     5     3    22    1
     6     3    25    1
     7     4    24    2
     8     5    25    2
     9     6     9    1
    10     6    14    1
    11     6    20    1
    12     7     8    1
    13     7    10    1
    14     7    11    1
    15     7    12    1
    16     8     9    1
    17     8    17    1
    18     8    29    1
    19     9    13    1
    20     9    30    1
    21    10    16    1
    22    10    31    1
    23    11    14    1
    24    11    32    1
    25    11    33    1
    26    12    15   ar
    27    12    18   ar
    28    13    15    1
    29    13    34    1
    30    13    35    1
    31    14    36    1
    32    14    37    1
    33    15    21   ar
    34    16    19    1
    35    16    38    1
    36    17    19    2
    37    17    39    1
    38    18    22   ar
    39    19    40    1
    40    20    41    1
    41    20    42    1
    42    20    43    1
    43    21    23   ar
    44    21    44    1
    45    22    23   ar
    46    23    45    1
    47    24    26    1
    48    25    27    1
    49    26    46    1
    50    26    47    1
    51    26    48    1
    52    27    28    1
    53    27    49    1
    54    27    50    1
    55    28    51    1
    56    28    52    1
    57    28    53    1
@<TRIPOS>MOLECULE
15764785
 66 71 0 0 0
SMALL
GASTEIGER

@<TRIPOS>ATOM
      1 O           0.5846   -0.9077   -0.6934 O.3     1  UNL1       -0.4811
      2 O          -1.2632    0.1520    0.8170 O.3     1  UNL1       -0.3377
      3 O           1.2948   -3.5276    0.3377 O.3     1  UNL1       -0.4886
      4 O          -3.3937    1.0651    0.5527 O.3     1  UNL1       -0.3315
      5 O          -2.0672   -2.1095   -0.6743 O.3     1  UNL1       -0.3841
      6 O          -4.9702   -2.5764   -0.5087 O.3     1  UNL1       -0.3864
      7 O          -6.4013   -0.1297   -1.1517 O.3     1  UNL1       -0.3860
      8 O          -6.5709    2.3751   -0.1652 O.3     1  UNL1       -0.4788
      9 O          -5.0863    2.7069    1.5324 O.2     1  UNL1       -0.2480
     10 N           4.4521    2.6177   -1.0570 N.3     1  UNL1       -0.3015
     11 C           2.0429    1.0428   -0.6800 C.3     1  UNL1        0.0480
     12 C           2.3573    2.2891    0.1617 C.3     1  UNL1        0.0064
     13 C           0.5738    0.5621   -0.7327 C.3     1  UNL1        0.1402
     14 C           3.9128    2.3602    0.3003 C.3     1  UNL1        0.0213
     15 C           2.6705    1.1998   -2.0792 C.3     1  UNL1       -0.0263
     16 C           2.6183   -0.1492    0.0108 C.ar    1  UNL1        0.0116
     17 C           4.5145    1.1057    1.0221 C.3     1  UNL1       -0.0110
     18 C           4.1661    1.5526   -2.0232 C.3     1  UNL1       -0.0001
     19 C          -0.3311    1.1407    0.3863 C.3     1  UNL1        0.1175
     20 C           3.7850   -0.1830    0.7533 C.ar    1  UNL1       -0.0383
     21 C           1.6093    2.2781    1.4703 C.2     1  UNL1       -0.0799
     22 C           1.7696   -1.2286   -0.0883 C.ar    1  UNL1        0.1666
     23 C           0.3876    1.7332    1.5692 C.2     1  UNL1       -0.0556
     24 C           4.1505   -1.4100    1.3092 C.ar    1  UNL1       -0.0546
     25 C           5.8668    2.9755   -1.0615 C.3     1  UNL1       -0.0124
     26 C           2.1128   -2.4518    0.4444 C.ar    1  UNL1        0.1622
     27 C           3.3272   -2.5409    1.1367 C.ar    1  UNL1       -0.0160
     28 C          -2.4388    0.1577    0.0082 C.3     1  UNL1        0.1893
     29 C          -3.0051   -1.2624   -0.0107 C.3     1  UNL1        0.1342
     30 C          -4.3443   -1.3147   -0.7465 C.3     1  UNL1        0.1145
     31 C          -5.2916   -0.2177   -0.2596 C.3     1  UNL1        0.1201
     32 C          -4.5835    1.1310   -0.2250 C.3     1  UNL1        0.1859
     33 C           1.9083   -4.8184    0.3305 C.3     1  UNL1        0.0870
     34 C          -5.4077    2.1499    0.4932 C.2     1  UNL1        0.3367
     35 C           1.0505   -5.7675   -0.4790 C.3     1  UNL1       -0.0307
     36 H           2.0185    3.1915   -0.3695 H       1  UNL1        0.0368
     37 H           0.1208    0.8261   -1.6971 H       1  UNL1        0.0772
     38 H           4.1540    3.2394    0.9136 H       1  UNL1        0.0472
     39 H           2.1413    2.0000   -2.6141 H       1  UNL1        0.0287
     40 H           2.5443    0.2882   -2.6776 H       1  UNL1        0.0287
     41 H           4.4517    1.2902    2.1032 H       1  UNL1        0.0329
     42 H           5.5776    0.9809    0.7937 H       1  UNL1        0.0329
     43 H           4.7523    0.6526   -1.8002 H       1  UNL1        0.0427
     44 H           4.4702    1.8754   -3.0269 H       1  UNL1        0.0427
     45 H          -0.8801    1.9979   -0.0332 H       1  UNL1        0.0679
     46 H           2.0536    2.7588    2.3363 H       1  UNL1        0.0573
     47 H          -0.1389    1.7864    2.5179 H       1  UNL1        0.0596
     48 H           5.0548   -1.4948    1.9059 H       1  UNL1        0.0622
     49 H           6.5207    2.1336   -0.8135 H       1  UNL1        0.0391
     50 H           6.0661    3.7898   -0.3563 H       1  UNL1        0.0391
     51 H           6.1593    3.3446   -2.0511 H       1  UNL1        0.0391
     52 H           3.6462   -3.4630    1.6156 H       1  UNL1        0.0655
     53 H          -2.1899    0.4594   -1.0190 H       1  UNL1        0.0938
     54 H          -3.1160   -1.6491    1.0093 H       1  UNL1        0.0671
     55 H          -4.1895   -1.2437   -1.8305 H       1  UNL1        0.0648
     56 H          -5.6853   -0.4741    0.7325 H       1  UNL1        0.0652
     57 H          -4.3537    1.5203   -1.2246 H       1  UNL1        0.0741
     58 H           2.9021   -4.7929   -0.1335 H       1  UNL1        0.0694
     59 H           1.9937   -5.1804    1.3609 H       1  UNL1        0.0694
     60 H          -1.9450   -1.7746   -1.5790 H       1  UNL1        0.2101
     61 H          -5.7525   -2.6318   -1.0828 H       1  UNL1        0.2100
     62 H          -6.9063   -0.9567   -1.0779 H       1  UNL1        0.2100
     63 H           1.4857   -6.7706   -0.4971 H       1  UNL1        0.0262
     64 H           0.0412   -5.8281   -0.0588 H       1  UNL1        0.0262
     65 H           0.9450   -5.4090   -1.5084 H       1  UNL1        0.0262
     66 H          -7.1278    3.0408    0.2919 H       1  UNL1        0.2951
@<TRIPOS>BOND
     1     1    13    1
     2     1    22    1
     3     2    19    1
     4     2    28    1
     5     3    26    1
     6     3    33    1
     7     4    28    1
     8     4    32    1
     9     5    29    1
    10     5    60    1
    11     6    30    1
    12     6    61    1
    13     7    31    1
    14     7    62    1
    15     8    34    1
    16     8    66    1
    17     9    34    2
    18    10    14    1
    19    10    18    1
    20    10    25    1
    21    11    12    1
    22    11    13    1
    23    11    15    1
    24    11    16    1
    25    12    14    1
    26    12    21    1
    27    12    36    1
    28    13    19    1
    29    13    37    1
    30    14    17    1
    31    14    38    1
    32    15    18    1
    33    15    39    1
    34    15    40    1
    35    16    20   ar
    36    16    22   ar
    37    17    20    1
    38    17    41    1
    39    17    42    1
    40    18    43    1
    41    18    44    1
    42    19    23    1
    43    19    45    1
    44    20    24   ar
    45    21    23    2
    46    21    46    1
    47    22    26   ar
    48    23    47    1
    49    24    27   ar
    50    24    48    1
    51    25    49    1
    52    25    50    1
    53    25    51    1
    54    26    27   ar
    55    27    52    1
    56    28    29    1
    57    28    53    1
    58    29    30    1
    59    29    54    1
    60    30    31    1
    61    30    55    1
    62    31    32    1
    63    31    56    1
    64    32    34    1
    65    32    57    1
    66    33    35    1
    67    33    58    1
    68    33    59    1
    69    35    63    1
    70    35    64    1
    71    35    65    1
@<TRIPOS>MOLECULE
23253564
 41 45 0 0 0
SMALL
GASTEIGER

@<TRIPOS>ATOM
      1 O           1.9982    0.4443    1.1960 O.3     1  UNL1       -0.4811
      2 O           2.8197    2.4943   -0.1970 O.3     1  UNL1       -0.3841
      3 O           3.5913   -1.8944    0.5484 O.3     1  UNL1       -0.5033
      4 N          -3.1732    0.0275    0.4562 N.4     1  UNL1        0.2359
      5 C          -0.3632    0.7218    0.6582 C.3     1  UNL1        0.0553
      6 C          -1.2676    1.3332   -0.4237 C.3     1  UNL1        0.0339
      7 C          -2.3201    0.2533   -0.8038 C.3     1  UNL1       -0.0097
      8 C           0.9568    1.4613    0.9880 C.3     1  UNL1        0.1402
      9 C          -1.1881    0.4035    1.9228 C.3     1  UNL1        0.0015
     10 C           0.2411   -0.5302    0.1135 C.ar    1  UNL1        0.0120
     11 C          -2.4063   -0.4809    1.6526 C.3     1  UNL1       -0.0309
     12 C          -1.7112   -1.0799   -1.3311 C.3     1  UNL1        0.0165
     13 C          -0.3633   -1.4218   -0.7544 C.ar    1  UNL1       -0.0345
     14 C           1.3994    2.4976   -0.0770 C.3     1  UNL1        0.1110
     15 C          -0.4695    1.8450   -1.5951 C.2     1  UNL1       -0.0761
     16 C           1.5550   -0.6514    0.5060 C.ar    1  UNL1        0.1663
     17 C           0.7589    2.3573   -1.4314 C.2     1  UNL1       -0.0558
     18 C          -4.4297   -0.7649    0.2104 C.3     1  UNL1       -0.0428
     19 C           0.3761   -2.5447   -1.1306 C.ar    1  UNL1       -0.0544
     20 C           2.3019   -1.7539    0.1537 C.ar    1  UNL1        0.1588
     21 C           1.6938   -2.7169   -0.6616 C.ar    1  UNL1       -0.0162
     22 H          -1.7971    2.2054   -0.0134 H       1  UNL1        0.0408
     23 H          -3.0170    0.6555   -1.5498 H       1  UNL1        0.0860
     24 H           0.8715    1.9913    1.9457 H       1  UNL1        0.0772
     25 H          -1.5329    1.3488    2.3629 H       1  UNL1        0.0327
     26 H          -0.5688   -0.0825    2.6879 H       1  UNL1        0.0327
     27 H          -3.5103    0.9630    0.7216 H       1  UNL1        0.2034
     28 H          -2.1288   -1.5218    1.4587 H       1  UNL1        0.0815
     29 H          -3.0883   -0.4584    2.5097 H       1  UNL1        0.0815
     30 H          -1.5680   -0.9629   -2.4139 H       1  UNL1        0.0368
     31 H          -2.3933   -1.9239   -1.1953 H       1  UNL1        0.0368
     32 H           1.1216    3.4941    0.2910 H       1  UNL1        0.0675
     33 H          -0.9180    1.8344   -2.5837 H       1  UNL1        0.0575
     34 H           1.2806    2.7571   -2.2963 H       1  UNL1        0.0596
     35 H          -4.1709   -1.8144    0.0566 H       1  UNL1        0.0778
     36 H          -5.0679   -0.6567    1.0918 H       1  UNL1        0.0778
     37 H          -4.9334   -0.3469   -0.6646 H       1  UNL1        0.0778
     38 H          -0.0485   -3.2800   -1.8087 H       1  UNL1        0.0622
     39 H           2.2486   -3.5983   -0.9752 H       1  UNL1        0.0655
     40 H           3.0696    3.2010   -0.8166 H       1  UNL1        0.2104
     41 H           3.9403   -2.7288    0.1906 H       1  UNL1        0.2923
@<TRIPOS>UNITY_ATOM_ATTR
4 1
charge 1
@<TRIPOS>BOND
     1     1     8    1
     2     1    16    1
     3     2    14    1
     4     2    40    1
     5     3    20    1
     6     3    41    1
     7     4     7    1
     8     4    11    1
     9     4    18    1
    10     4    27    1
    11     5     6    1
    12     5     8    1
    13     5     9    1
    14     5    10    1
    15     6     7    1
    16     6    15    1
    17     6    22    1
    18     7    12    1
    19     7    23    1
    20     8    14    1
    21     8    24    1
    22     9    11    1
    23     9    25    1
    24     9    26    1
    25    10    13   ar
    26    10    16   ar
    27    11    28    1
    28    11    29    1
    29    12    13    1
    30    12    30    1
    31    12    31    1
    32    13    19   ar
    33    14    17    1
    34    14    32    1
    35    15    17    2
    36    15    33    1
    37    16    20   ar
    38    17    34    1
    39    18    35    1
    40    18    36    1
    41    18    37    1
    42    19    21   ar
    43    19    38    1
    44    20    21   ar
    45    21    39    1
@<TRIPOS>MOLECULE
129670021
 45 49 0 0 0
SMALL
GASTEIGER

@<TRIPOS>ATOM
      1 O           1.5250   -1.3387   -0.8977 O.3     1  UNL1       -0.4811
      2 O           1.4298   -3.5375    0.5292 O.3     1  UNL1       -0.3841
      3 O          -2.2278    2.3917    1.5329 O.2     1  UNL1       -0.2903
      4 O           3.6608    0.4129   -0.0135 O.3     1  UNL1       -0.4886
      5 N          -3.3481    0.6665   -0.8763 N.3     1  UNL1       -0.2951
      6 C          -0.8583   -0.8401   -0.7316 C.3     1  UNL1        0.0488
      7 C          -2.0263   -1.0767    0.2346 C.3     1  UNL1        0.0133
      8 C           0.1961   -1.9658   -0.8645 C.3     1  UNL1        0.1399
      9 C          -2.7481    0.2887    0.4205 C.3     1  UNL1        0.0806
     10 C          -1.4104   -0.3667   -2.0899 C.3     1  UNL1       -0.0263
     11 C           0.0257    0.1970   -0.1241 C.ar    1  UNL1        0.0189
     12 C          -2.3753    0.8264   -1.9647 C.3     1  UNL1        0.0002
     13 C           0.1236   -3.0412    0.2497 C.3     1  UNL1        0.1110
     14 C          -1.5666   -1.7232    1.5181 C.2     1  UNL1       -0.0794
     15 C          -0.3680    1.2855    0.6275 C.ar    1  UNL1        0.0266
     16 C           1.3523   -0.1218   -0.2974 C.ar    1  UNL1        0.1670
     17 C          -1.8132    1.4110    0.9231 C.2     1  UNL1        0.1811
     18 C          -0.5617   -2.6120    1.5198 C.2     1  UNL1       -0.0559
     19 C          -4.2580    1.8034   -0.7948 C.3     1  UNL1       -0.0121
     20 C           2.3499    0.7095    0.1673 C.ar    1  UNL1        0.1622
     21 C           0.6110    2.1460    1.1182 C.ar    1  UNL1       -0.0472
     22 C           1.9676    1.8618    0.8694 C.ar    1  UNL1       -0.0156
     23 C           4.5748    1.5089   -0.0901 C.3     1  UNL1        0.0870
     24 C           5.7453    1.1146   -0.9655 C.3     1  UNL1       -0.0307
     25 H          -2.7426   -1.7820   -0.2138 H       1  UNL1        0.0372
     26 H           0.0941   -2.4811   -1.8283 H       1  UNL1        0.0772
     27 H          -3.5368    0.1536    1.1725 H       1  UNL1        0.0551
     28 H          -1.9480   -1.2015   -2.5597 H       1  UNL1        0.0287
     29 H          -0.5974   -0.0935   -2.7748 H       1  UNL1        0.0287
     30 H          -1.7980    1.7511   -1.8390 H       1  UNL1        0.0427
     31 H          -2.9081    0.9272   -2.9187 H       1  UNL1        0.0427
     32 H          -0.4549   -3.8893   -0.1398 H       1  UNL1        0.0675
     33 H          -2.0850   -1.4945    2.4439 H       1  UNL1        0.0573
     34 H          -0.2850   -3.0948    2.4524 H       1  UNL1        0.0596
     35 H          -5.0018    1.6518   -0.0049 H       1  UNL1        0.0391
     36 H          -4.8166    1.9094   -1.7316 H       1  UNL1        0.0391
     37 H          -3.7380    2.7483   -0.6063 H       1  UNL1        0.0391
     38 H           0.3494    3.0169    1.7119 H       1  UNL1        0.0626
     39 H           2.7015    2.5418    1.2944 H       1  UNL1        0.0655
     40 H           1.3446   -4.2536    1.1817 H       1  UNL1        0.2104
     41 H           4.1096    2.3950   -0.5396 H       1  UNL1        0.0694
     42 H           4.9288    1.7515    0.9178 H       1  UNL1        0.0694
     43 H           6.2470    0.2288   -0.5621 H       1  UNL1        0.0262
     44 H           5.4033    0.8550   -1.9728 H       1  UNL1        0.0262
     45 H           6.4719    1.9288   -1.0381 H       1  UNL1        0.0262
@<TRIPOS>BOND
     1     1     8    1
     2     1    16    1
     3     2    13    1
     4     2    40    1
     5     3    17    2
     6     4    20    1
     7     4    23    1
     8     5     9    1
     9     5    12    1
    10     5    19    1
    11     6     7    1
    12     6     8    1
    13     6    10    1
    14     6    11    1
    15     7     9    1
    16     7    14    1
    17     7    25    1
    18     8    13    1
    19     8    26    1
    20     9    17    1
    21     9    27    1
    22    10    12    1
    23    10    28    1
    24    10    29    1
    25    11    15   ar
    26    11    16   ar
    27    12    30    1
    28    12    31    1
    29    13    18    1
    30    13    32    1
    31    14    18    2
    32    14    33    1
    33    15    17    1
    34    15    21   ar
    35    16    20   ar
    36    18    34    1
    37    19    35    1
    38    19    36    1
    39    19    37    1
    40    20    22   ar
    41    21    22   ar
    42    21    38    1
    43    22    39    1
    44    23    24    1
    45    23    41    1
    46    23    42    1
    47    24    43    1
    48    24    44    1
    49    24    45    1
@<TRIPOS>MOLECULE
5745290
 42 46 0 0 0
SMALL
GASTEIGER

@<TRIPOS>ATOM
      1 O          -1.5485   -1.2598    1.2359 O.3     1  UNL1       -0.4810
      2 O          -1.7702   -3.3402   -0.3268 O.3     1  UNL1       -0.3841
      3 O          -3.8062    0.4939    0.8320 O.3     1  UNL1       -0.5021
      4 N           3.2190    0.7630    0.4000 N.3     1  UNL1       -0.3015
      5 N          -3.3760    2.8581   -0.6509 N.pl3   1  UNL1       -0.3550
      6 C           0.7537   -0.7533    0.6235 C.3     1  UNL1        0.0480
      7 C           1.7564   -0.9676   -0.5206 C.3     1  UNL1        0.0064
      8 C           2.4230    0.4181   -0.8027 C.3     1  UNL1        0.0213
      9 C          -0.2574   -1.8865    0.9156 C.3     1  UNL1        0.1399
     10 C           1.5088   -0.2872    1.8840 C.3     1  UNL1       -0.0263
     11 C          -0.2295    0.2871    0.1991 C.ar    1  UNL1        0.0117
     12 C           1.3880    1.5094   -1.2441 C.3     1  UNL1       -0.0110
     13 C           2.4182    0.9238    1.6178 C.3     1  UNL1       -0.0001
     14 C           0.0301    1.3800   -0.6081 C.ar    1  UNL1       -0.0366
     15 C          -0.4115   -2.9201   -0.2307 C.3     1  UNL1        0.1110
     16 C           1.1027   -1.6066   -1.7191 C.2     1  UNL1       -0.0799
     17 C          -1.4971   -0.0335    0.6301 C.ar    1  UNL1        0.1682
     18 C           0.0983   -2.4844   -1.5787 C.2     1  UNL1       -0.0559
     19 C          -1.0355    2.2409   -0.8761 C.ar    1  UNL1       -0.0337
     20 C           4.1149    1.8969    0.1980 C.3     1  UNL1       -0.0124
     21 C          -2.5625    0.8049    0.3855 C.ar    1  UNL1        0.1799
     22 C          -2.3187    1.9630   -0.3637 C.ar    1  UNL1        0.0706
     23 H           2.5427   -1.6674   -0.1993 H       1  UNL1        0.0368
     24 H           3.1334    0.2851   -1.6304 H       1  UNL1        0.0472
     25 H           0.0326   -2.4380    1.8193 H       1  UNL1        0.0772
     26 H           2.1284   -1.1172    2.2497 H       1  UNL1        0.0287
     27 H           0.8137   -0.0360    2.6955 H       1  UNL1        0.0287
     28 H           1.2456    1.4043   -2.3283 H       1  UNL1        0.0329
     29 H           1.7749    2.5203   -1.0824 H       1  UNL1        0.0329
     30 H           1.8150    1.8390    1.5728 H       1  UNL1        0.0427
     31 H           3.0836    1.0376    2.4829 H       1  UNL1        0.0427
     32 H           0.1707   -3.8128    0.0327 H       1  UNL1        0.0675
     33 H           1.4832   -1.3813   -2.7105 H       1  UNL1        0.0573
     34 H          -0.3158   -2.9583   -2.4641 H       1  UNL1        0.0596
     35 H          -0.8760    3.1147   -1.5039 H       1  UNL1        0.0640
     36 H           3.5840    2.8499    0.1090 H       1  UNL1        0.0391
     37 H           4.7277    1.7557   -0.6991 H       1  UNL1        0.0391
     38 H           4.8125    1.9811    1.0390 H       1  UNL1        0.0391
     39 H          -2.0479   -3.6341    0.5577 H       1  UNL1        0.2104
     40 H          -3.7575   -0.3483    1.3170 H       1  UNL1        0.2924
     41 H          -4.2892    2.6984   -0.2461 H       1  UNL1        0.1424
     42 H          -3.1867    3.7205   -1.1442 H       1  UNL1        0.1424
@<TRIPOS>BOND
     1     1     9    1
     2     1    17    1
     3     2    15    1
     4     2    39    1
     5     3    21    1
     6     3    40    1
     7     4     8    1
     8     4    13    1
     9     4    20    1
    10     5    22    1
    11     5    41    1
    12     5    42    1
    13     6     7    1
    14     6     9    1
    15     6    10    1
    16     6    11    1
    17     7     8    1
    18     7    16    1
    19     7    23    1
    20     8    12    1
    21     8    24    1
    22     9    15    1
    23     9    25    1
    24    10    13    1
    25    10    26    1
    26    10    27    1
    27    11    14   ar
    28    11    17   ar
    29    12    14    1
    30    12    28    1
    31    12    29    1
    32    13    30    1
    33    13    31    1
    34    14    19   ar
    35    15    18    1
    36    15    32    1
    37    16    18    2
    38    16    33    1
    39    17    21   ar
    40    18    34    1
    41    19    22   ar
    42    19    35    1
    43    20    36    1
    44    20    37    1
    45    20    38    1
    46    21    22   ar
@<TRIPOS>MOLECULE
3084614
 44 48 0 0 0
SMALL
GASTEIGER

@<TRIPOS>ATOM
      1 S           4.3770    0.3325   -0.6213 S.O2    1  UNL1        0.2514
      2 O           0.9781   -1.3707   -0.7036 O.3     1  UNL1       -0.4810
      3 O          -1.2053   -3.9092    0.1363 O.3     1  UNL1       -0.3841
      4 O           3.3585   -0.2382    0.5397 O.3     1  UNL1       -0.3213
      5 O           5.6589   -0.6752   -0.5431 O.3     1  UNL1       -0.2222
      6 O           3.7530    0.1605   -1.9202 O.2     1  UNL1       -0.1077
      7 O           4.8328    1.6462   -0.2049 O.2     1  UNL1       -0.1077
      8 N          -3.5678    1.5957   -0.9694 N.3     1  UNL1       -0.3015
      9 C          -1.2393   -0.4199   -0.6418 C.3     1  UNL1        0.0480
     10 C          -2.5107   -0.3439    0.1794 C.3     1  UNL1        0.0064
     11 C          -2.7196    1.2192    0.1651 C.3     1  UNL1        0.0213
     12 C          -0.4520   -1.7403   -0.6677 C.3     1  UNL1        0.1399
     13 C          -1.6065    0.1798   -2.0646 C.3     1  UNL1       -0.0263
     14 C          -0.2066    0.3801    0.1551 C.ar    1  UNL1        0.0117
     15 C          -1.9111    1.9099    1.2896 C.3     1  UNL1       -0.0110
     16 C          -3.1024    0.7828   -2.1601 C.3     1  UNL1       -0.0001
     17 C          -0.4542    1.4343    1.0693 C.ar    1  UNL1       -0.0383
     18 C          -0.6822   -2.6534    0.5745 C.3     1  UNL1        0.1110
     19 C          -2.4292   -1.0799    1.4844 C.2     1  UNL1       -0.0799
     20 C           1.0314   -0.2046    0.0200 C.ar    1  UNL1        0.1695
     21 C          -1.6145   -2.1343    1.6384 C.2     1  UNL1       -0.0559
     22 C           0.6431    1.9603    1.7448 C.ar    1  UNL1       -0.0545
     23 C          -4.9865    1.4356   -0.6960 C.3     1  UNL1       -0.0124
     24 C           2.1283    0.3177    0.6700 C.ar    1  UNL1        0.2004
     25 C           1.9268    1.4150    1.5261 C.ar    1  UNL1       -0.0130
     26 H          -3.3330   -0.8604   -0.3349 H       1  UNL1        0.0368
     27 H          -3.5652    1.2163    0.8770 H       1  UNL1        0.0472
     28 H          -0.6494   -2.3031   -1.5876 H       1  UNL1        0.0772
     29 H          -1.5223   -0.5934   -2.8369 H       1  UNL1        0.0287
     30 H          -0.9016    0.9801   -2.3220 H       1  UNL1        0.0287
     31 H          -2.2269    1.6454    2.3061 H       1  UNL1        0.0329
     32 H          -1.9537    2.9974    1.1663 H       1  UNL1        0.0329
     33 H          -3.1652    1.4145   -3.0535 H       1  UNL1        0.0427
     34 H          -3.7812   -0.0645   -2.3266 H       1  UNL1        0.0427
     35 H           0.2799   -2.8751    1.0511 H       1  UNL1        0.0675
     36 H          -3.0979   -0.7965    2.2910 H       1  UNL1        0.0573
     37 H          -1.6273   -2.6666    2.5861 H       1  UNL1        0.0596
     38 H           0.5202    2.7791    2.4476 H       1  UNL1        0.0622
     39 H          -5.2662    0.4123   -0.4217 H       1  UNL1        0.0391
     40 H          -5.5669    1.7072   -1.5854 H       1  UNL1        0.0391
     41 H          -5.3188    2.1164    0.0969 H       1  UNL1        0.0391
     42 H           2.7719    1.8364    2.0668 H       1  UNL1        0.0656
     43 H          -2.0407   -3.7375   -0.3318 H       1  UNL1        0.2104
     44 H           5.9977   -0.8556    0.3651 H       1  UNL1        0.2479
@<TRIPOS>BOND
     1     1     4    1
     2     1     5    1
     3     1     6    2
     4     1     7    2
     5     2    12    1
     6     2    20    1
     7     3    18    1
     8     3    43    1
     9     4    24    1
    10     5    44    1
    11     8    11    1
    12     8    16    1
    13     8    23    1
    14     9    10    1
    15     9    12    1
    16     9    13    1
    17     9    14    1
    18    10    11    1
    19    10    19    1
    20    10    26    1
    21    11    15    1
    22    11    27    1
    23    12    18    1
    24    12    28    1
    25    13    16    1
    26    13    29    1
    27    13    30    1
    28    14    17   ar
    29    14    20   ar
    30    15    17    1
    31    15    31    1
    32    15    32    1
    33    16    33    1
    34    16    34    1
    35    17    22   ar
    36    18    21    1
    37    18    35    1
    38    19    21    2
    39    19    36    1
    40    20    24   ar
    41    21    37    1
    42    22    25   ar
    43    22    38    1
    44    23    39    1
    45    23    40    1
    46    23    41    1
    47    24    25   ar
    48    25    42    1
@<TRIPOS>MOLECULE
118701638
 45 49 0 0 0
SMALL
GASTEIGER

@<TRIPOS>ATOM
      1 O          -1.2197   -0.8143    1.3090 O.3     1  UNL1       -0.4810
      2 O          -1.7490   -2.9515   -0.0951 O.3     1  UNL1       -0.3841
      3 O          -3.2008    1.2321    0.7445 O.3     1  UNL1       -0.4223
      4 O          -3.7517   -0.0260   -1.1509 O.2     1  UNL1       -0.2507
      5 N           3.7901    0.4199    0.3617 N.3     1  UNL1       -0.3015
      6 C           1.1300   -0.6978    0.6787 C.3     1  UNL1        0.0480
      7 C           2.0867   -1.1420   -0.4384 C.3     1  UNL1        0.0064
      8 C           2.9483    0.1059   -0.8181 C.3     1  UNL1        0.0213
      9 C          -0.0355   -1.6456    1.0467 C.3     1  UNL1        0.1399
     10 C           1.9493   -0.2541    1.9067 C.3     1  UNL1       -0.0263
     11 C           0.3084    0.4405    0.1699 C.ar    1  UNL1        0.0116
     12 C           2.0832    1.3009   -1.3478 C.3     1  UNL1       -0.0110
     13 C           3.0255    0.7873    1.5578 C.3     1  UNL1       -0.0001
     14 C           0.7230    1.4199   -0.7146 C.ar    1  UNL1       -0.0383
     15 C          -0.3430   -2.7287   -0.0201 C.3     1  UNL1        0.1110
     16 C           1.3424   -1.7665   -1.5909 C.2     1  UNL1       -0.0799
     17 C          -0.9910    0.3423    0.6136 C.ar    1  UNL1        0.1673
     18 C           0.2206   -2.4747   -1.3930 C.2     1  UNL1       -0.0559
     19 C           4.8421    1.3918    0.0825 C.3     1  UNL1       -0.0124
     20 C          -0.2057    2.4050   -1.0546 C.ar    1  UNL1       -0.0545
     21 C          -1.9226    1.3068    0.2987 C.ar    1  UNL1        0.1733
     22 C          -1.5141    2.3573   -0.5331 C.ar    1  UNL1       -0.0153
     23 C          -4.0663    0.5081   -0.0956 C.2     1  UNL1        0.3093
     24 C          -5.4500    0.4835    0.4825 C.3     1  UNL1        0.0336
     25 H           2.7629   -1.9235   -0.0597 H       1  UNL1        0.0368
     26 H           3.6289   -0.1915   -1.6280 H       1  UNL1        0.0472
     27 H           0.1732   -2.1638    1.9917 H       1  UNL1        0.0772
     28 H           2.4417   -1.1360    2.3382 H       1  UNL1        0.0287
     29 H           1.3011    0.1565    2.6916 H       1  UNL1        0.0287
     30 H           1.9234    1.1367   -2.4222 H       1  UNL1        0.0329
     31 H           2.6146    2.2534   -1.2591 H       1  UNL1        0.0329
     32 H           2.5630    1.7750    1.4398 H       1  UNL1        0.0427
     33 H           3.7032    0.8670    2.4171 H       1  UNL1        0.0427
     34 H           0.1025   -3.6716    0.3234 H       1  UNL1        0.0675
     35 H           1.7487   -1.6744   -2.5934 H       1  UNL1        0.0573
     36 H          -0.2589   -2.9471   -2.2457 H       1  UNL1        0.0596
     37 H           5.4246    1.0953   -0.7966 H       1  UNL1        0.0391
     38 H           5.5471    1.4358    0.9204 H       1  UNL1        0.0391
     39 H           4.4564    2.4029   -0.0816 H       1  UNL1        0.0391
     40 H           0.0641    3.1999   -1.7447 H       1  UNL1        0.0622
     41 H          -2.2229    3.1323   -0.8155 H       1  UNL1        0.0656
     42 H          -1.9039   -3.6822   -0.7179 H       1  UNL1        0.2104
     43 H          -5.4307    0.0040    1.4643 H       1  UNL1        0.0342
     44 H          -6.1078   -0.0924   -0.1746 H       1  UNL1        0.0342
     45 H          -5.8359    1.5029    0.5587 H       1  UNL1        0.0342
@<TRIPOS>BOND
     1     1     9    1
     2     1    17    1
     3     2    15    1
     4     2    42    1
     5     3    21    1
     6     3    23    1
     7     4    23    2
     8     5     8    1
     9     5    13    1
    10     5    19    1
    11     6     7    1
    12     6     9    1
    13     6    10    1
    14     6    11    1
    15     7     8    1
    16     7    16    1
    17     7    25    1
    18     8    12    1
    19     8    26    1
    20     9    15    1
    21     9    27    1
    22    10    13    1
    23    10    28    1
    24    10    29    1
    25    11    14   ar
    26    11    17   ar
    27    12    14    1
    28    12    30    1
    29    12    31    1
    30    13    32    1
    31    13    33    1
    32    14    20   ar
    33    15    18    1
    34    15    34    1
    35    16    18    2
    36    16    35    1
    37    17    21   ar
    38    18    36    1
    39    19    37    1
    40    19    38    1
    41    19    39    1
    42    20    22   ar
    43    20    40    1
    44    21    22   ar
    45    22    41    1
    46    23    24    1
    47    24    43    1
    48    24    44    1
    49    24    45    1
@<TRIPOS>MOLECULE
628239
 50 54 0 0 0
SMALL
GASTEIGER

@<TRIPOS>ATOM
      1 BR         -2.0807   -2.9413   -0.0112 Br      1  UNL1       -0.0773
      2 O           1.5542    0.2431   -1.2884 O.3     1  UNL1       -0.4782
      3 O           2.7950   -1.2342    0.3860 O.3     1  UNL1       -0.3457
      4 O           1.5266   -3.0948   -0.1661 O.3     1  UNL1       -0.3457
      5 O           2.7228    2.8641   -0.8063 O.3     1  UNL1       -0.4914
      6 N          -3.5568   -0.1707   -0.3785 N.3     1  UNL1       -0.3004
      7 C          -0.6736   -0.4442   -0.6076 C.3     1  UNL1        0.0631
      8 C          -1.4521   -1.1284    0.5273 C.3     1  UNL1        0.0734
      9 C           0.7613   -0.9436   -0.9200 C.3     1  UNL1        0.1690
     10 C          -2.6964   -0.2257    0.8310 C.3     1  UNL1        0.0337
     11 C          -1.5468   -0.2576   -1.8715 C.3     1  UNL1       -0.0252
     12 C          -0.2846    0.9236   -0.1257 C.ar    1  UNL1        0.0127
     13 C          -2.2613    1.1848    1.3675 C.3     1  UNL1       -0.0100
     14 C           1.4570   -1.7216    0.2468 C.3     1  UNL1        0.2282
     15 C          -2.9062    0.3955   -1.5631 C.3     1  UNL1       -0.0001
     16 C          -1.0105    1.7322    0.7320 C.ar    1  UNL1       -0.0382
     17 C          -0.5666   -1.4161    1.7143 C.2     1  UNL1       -0.0639
     18 C           0.9612    1.2689   -0.6010 C.ar    1  UNL1        0.1667
     19 C           0.7444   -1.6690    1.5803 C.2     1  UNL1       -0.0244
     20 C          -0.4722    2.9847    1.0304 C.ar    1  UNL1       -0.0546
     21 C          -4.8627    0.4344   -0.1422 C.3     1  UNL1       -0.0124
     22 C           1.5054    2.5046   -0.3313 C.ar    1  UNL1        0.1618
     23 C           0.7693    3.3727    0.4859 C.ar    1  UNL1       -0.0160
     24 C           3.5300   -2.0136    1.3148 C.3     1  UNL1        0.0401
     25 C           2.1853   -3.2166   -1.4136 C.3     1  UNL1        0.0401
     26 C           3.8580    2.5685    0.0103 C.3     1  UNL1        0.0790
     27 H           0.6810   -1.5240   -1.8405 H       1  UNL1        0.0801
     28 H          -3.2877   -0.7064    1.6234 H       1  UNL1        0.0483
     29 H          -1.7186   -1.2296   -2.3499 H       1  UNL1        0.0288
     30 H          -1.0320    0.3540   -2.6248 H       1  UNL1        0.0288
     31 H          -2.0588    1.0813    2.4420 H       1  UNL1        0.0329
     32 H          -3.0703    1.9163    1.2777 H       1  UNL1        0.0329
     33 H          -2.7797    1.4801   -1.4569 H       1  UNL1        0.0427
     34 H          -3.5503    0.2503   -2.4396 H       1  UNL1        0.0427
     35 H          -1.0162   -1.4546    2.7030 H       1  UNL1        0.0585
     36 H           1.2744   -1.9292    2.4908 H       1  UNL1        0.0623
     37 H          -0.9956    3.6625    1.6994 H       1  UNL1        0.0622
     38 H          -4.8093    1.5163    0.0146 H       1  UNL1        0.0391
     39 H          -5.3527   -0.0191    0.7261 H       1  UNL1        0.0391
     40 H          -5.5225    0.2542   -0.9986 H       1  UNL1        0.0391
     41 H           1.1696    4.3532    0.7338 H       1  UNL1        0.0655
     42 H           4.5913   -1.8620    1.0913 H       1  UNL1        0.0525
     43 H           3.3443   -3.0902    1.2643 H       1  UNL1        0.0525
     44 H           3.3793   -1.6453    2.3338 H       1  UNL1        0.0525
     45 H           2.7938   -4.1261   -1.3677 H       1  UNL1        0.0525
     46 H           2.8605   -2.3962   -1.6780 H       1  UNL1        0.0525
     47 H           1.4541   -3.3865   -2.2103 H       1  UNL1        0.0525
     48 H           3.7817    3.0840    0.9729 H       1  UNL1        0.0660
     49 H           4.7533    2.9227   -0.5077 H       1  UNL1        0.0660
     50 H           3.9468    1.4891    0.1667 H       1  UNL1        0.0660
@<TRIPOS>BOND
     1     1     8    1
     2     2     9    1
     3     2    18    1
     4     3    14    1
     5     3    24    1
     6     4    14    1
     7     4    25    1
     8     5    22    1
     9     5    26    1
    10     6    10    1
    11     6    15    1
    12     6    21    1
    13     7     8    1
    14     7     9    1
    15     7    11    1
    16     7    12    1
    17     8    10    1
    18     8    17    1
    19     9    14    1
    20     9    27    1
    21    10    13    1
    22    10    28    1
    23    11    15    1
    24    11    29    1
    25    11    30    1
    26    12    16   ar
    27    12    18   ar
    28    13    16    1
    29    13    31    1
    30    13    32    1
    31    14    19    1
    32    15    33    1
    33    15    34    1
    34    16    20   ar
    35    17    19    2
    36    17    35    1
    37    18    22   ar
    38    19    36    1
    39    20    23   ar
    40    20    37    1
    41    21    38    1
    42    21    39    1
    43    21    40    1
    44    22    23   ar
    45    23    41    1
    46    24    42    1
    47    24    43    1
    48    24    44    1
    49    25    45    1
    50    25    46    1
    51    25    47    1
    52    26    48    1
    53    26    49    1
    54    26    50    1
@<TRIPOS>MOLECULE
21762584
 61 65 0 0 0
SMALL
GASTEIGER

@<TRIPOS>ATOM
      1 SI         -3.8976    0.8518   -0.2710 Si      1  UNL1        0.0000
      2 O          -0.1825   -1.1882    1.0826 O.3     1  UNL1        0.0000
      3 O          -0.2722   -3.3062   -0.4425 O.3     1  UNL1        0.0000
      4 O          -2.4000    0.5696    0.4315 O.3     1  UNL1        0.0000
      5 N           4.6417    0.8173    0.6098 N.3     1  UNL1        0.0000
      6 C           2.1644   -0.6950    0.6577 C.3     1  UNL1        0.0000
      7 C           3.2612   -0.9362   -0.3906 C.3     1  UNL1        0.0000
      8 C           3.9514    0.4426   -0.6481 C.3     1  UNL1        0.0000
      9 C           1.1305   -1.8216    0.8894 C.3     1  UNL1        0.0000
     10 C           2.8092   -0.1980    1.9666 C.3     1  UNL1        0.0000
     11 C           1.2226    0.3340    0.1255 C.ar    1  UNL1        0.0000
     12 C           2.9594    1.5222   -1.2029 C.3     1  UNL1        0.0000
     13 C           3.7397    1.0069    1.7502 C.3     1  UNL1        0.0000
     14 C           1.5518    1.4072   -0.6827 C.ar    1  UNL1        0.0000
     15 C           1.0739   -2.8828   -0.2405 C.3     1  UNL1        0.0000
     16 C           2.7118   -1.6047   -1.6250 C.2     1  UNL1        0.0000
     17 C          -0.0778    0.0230    0.4538 C.ar    1  UNL1        0.0000
     18 C           1.6979   -2.4796   -1.5500 C.2     1  UNL1        0.0000
     19 C          -1.1171    0.8544    0.0985 C.ar    1  UNL1        0.0000
     20 C           0.5143    2.2605   -1.0619 C.ar    1  UNL1        0.0000
     21 C           5.5532    1.9466    0.4578 C.3     1  UNL1        0.0000
     22 C          -0.8085    1.9942   -0.6549 C.ar    1  UNL1        0.0000
     23 C          -5.2091   -0.2998    0.4274 C.3     1  UNL1        0.0000
     24 C          -4.4478    2.6227    0.0805 C.3     1  UNL1        0.0000
     25 C          -3.8280    0.6379   -2.1376 C.3     1  UNL1        0.0000
     26 C          -6.5724   -0.0249   -0.2451 C.3     1  UNL1        0.0000
     27 C          -4.8168   -1.7722    0.1716 C.3     1  UNL1        0.0000
     28 C          -5.3531   -0.0816    1.9499 C.3     1  UNL1        0.0000
     29 H           4.0161   -1.6276    0.0136 H       1  UNL1        0.0000
     30 H           4.7300    0.2901   -1.4084 H       1  UNL1        0.0000
     31 H           1.3409   -2.3506    1.8280 H       1  UNL1        0.0000
     32 H           3.3941   -1.0183    2.4042 H       1  UNL1        0.0000
     33 H           2.0474    0.0724    2.7092 H       1  UNL1        0.0000
     34 H           2.9104    1.3906   -2.2924 H       1  UNL1        0.0000
     35 H           3.3323    2.5370   -1.0332 H       1  UNL1        0.0000
     36 H           3.1438    1.9204    1.6315 H       1  UNL1        0.0000
     37 H           4.3286    1.1421    2.6661 H       1  UNL1        0.0000
     38 H           1.6284   -3.7659    0.1031 H       1  UNL1        0.0000
     39 H           3.1765   -1.4032   -2.5852 H       1  UNL1        0.0000
     40 H           1.3633   -2.9739   -2.4575 H       1  UNL1        0.0000
     41 H           0.7147    3.1221   -1.6933 H       1  UNL1        0.0000
     42 H           6.2403    1.7842   -0.3797 H       1  UNL1        0.0000
     43 H           6.1763    2.0517    1.3533 H       1  UNL1        0.0000
     44 H           5.0331    2.8968    0.3008 H       1  UNL1        0.0000
     45 H          -1.5774    2.6928   -0.9698 H       1  UNL1        0.0000
     46 H          -0.2661   -4.0193   -1.1036 H       1  UNL1        0.0000
     47 H          -4.4868    2.8092    1.1574 H       1  UNL1        0.0000
     48 H          -3.7507    3.3397   -0.3615 H       1  UNL1        0.0000
     49 H          -5.4372    2.8173   -0.3419 H       1  UNL1        0.0000
     50 H          -3.5230   -0.3791   -2.4001 H       1  UNL1        0.0000
     51 H          -4.8025    0.8344   -2.5933 H       1  UNL1        0.0000
     52 H          -3.1084    1.3318   -2.5813 H       1  UNL1        0.0000
     53 H          -6.5439   -0.1957   -1.3273 H       1  UNL1        0.0000
     54 H          -6.9222    0.9995   -0.0746 H       1  UNL1        0.0000
     55 H          -7.3414   -0.6938    0.1608 H       1  UNL1        0.0000
     56 H          -3.8556   -2.0252    0.6357 H       1  UNL1        0.0000
     57 H          -4.7390   -1.9970   -0.8987 H       1  UNL1        0.0000
     58 H          -5.5680   -2.4528    0.5900 H       1  UNL1        0.0000
     59 H          -5.6849    0.9348    2.1920 H       1  UNL1        0.0000
     60 H          -4.4095   -0.2604    2.4797 H       1  UNL1        0.0000
     61 H          -6.0962   -0.7694    2.3713 H       1  UNL1        0.0000
@<TRIPOS>BOND
     1     1     4    1
     2     1    23    1
     3     1    24    1
     4     1    25    1
     5     2     9    1
     6     2    17    1
     7     3    15    1
     8     3    46    1
     9     4    19    1
    10     5     8    1
    11     5    13    1
    12     5    21    1
    13     6     7    1
    14     6     9    1
    15     6    10    1
    16     6    11    1
    17     7     8    1
    18     7    16    1
    19     7    29    1
    20     8    12    1
    21     8    30    1
    22     9    15    1
    23     9    31    1
    24    10    13    1
    25    10    32    1
    26    10    33    1
    27    11    14   ar
    28    11    17   ar
    29    12    14    1
    30    12    34    1
    31    12    35    1
    32    13    36    1
    33    13    37    1
    34    14    20   ar
    35    15    18    1
    36    15    38    1
    37    16    18    2
    38    16    39    1
    39    17    19   ar
    40    18    40    1
    41    19    22   ar
    42    20    22   ar
    43    20    41    1
    44    21    42    1
    45    21    43    1
    46    21    44    1
    47    22    45    1
    48    23    26    1
    49    23    27    1
    50    23    28    1
    51    24    47    1
    52    24    48    1
    53    24    49    1
    54    25    50    1
    55    25    51    1
    56    25    52    1
    57    26    53    1
    58    26    54    1
    59    26    55    1
    60    27    56    1
    61    27    57    1
    62    27    58    1
    63    28    59    1
    64    28    60    1
    65    28    61    1
@<TRIPOS>MOLECULE
5491523
 45 49 0 0 0
SMALL
GASTEIGER

@<TRIPOS>ATOM
      1 P          -4.2101   -0.7268   -0.2951 P.3     1  UNL1        0.4730
      2 O          -0.8246    1.0879    1.4455 O.3     1  UNL1       -0.4810
      3 O          -2.8628   -0.1567    0.3890 O.3     1  UNL1       -0.2756
      4 O          -0.8263    3.8594    0.5795 O.3     1  UNL1       -0.5033
      5 O          -5.3150    0.4108    0.0215 O.3     1  UNL1       -0.3026
      6 O          -4.6264   -1.9353    0.6956 O.3     1  UNL1       -0.3026
      7 O          -4.0785   -1.1089   -1.7404 O.2     1  UNL1       -0.2275
      8 N           3.4403   -1.7439    0.3009 N.3     1  UNL1       -0.3015
      9 C           0.8279   -0.5791    0.7960 C.3     1  UNL1        0.0480
     10 C           1.0565   -1.6878   -0.2427 C.3     1  UNL1        0.0064
     11 C           2.4973   -1.4824   -0.8133 C.3     1  UNL1        0.0213
     12 C          -0.6144   -0.3612    1.3099 C.3     1  UNL1        0.1407
     13 C           1.8523   -0.7299    1.9379 C.3     1  UNL1       -0.0263
     14 C           1.0010    0.7413    0.1210 C.ar    1  UNL1        0.0116
     15 C           2.6775   -0.0937   -1.5178 C.3     1  UNL1       -0.0110
     16 C           3.3006   -0.8174    1.4289 C.3     1  UNL1       -0.0001
     17 C          -1.7149   -1.0011    0.4238 C.3     1  UNL1        0.1258
     18 C           1.8828    1.0282   -0.9055 C.ar    1  UNL1       -0.0383
     19 C          -0.0347   -1.7078   -1.2824 C.2     1  UNL1       -0.0798
     20 C           0.0738    1.6500    0.5793 C.ar    1  UNL1        0.1663
     21 C          -1.2965   -1.3734   -0.9738 C.2     1  UNL1       -0.0551
     22 C           4.8305   -1.8546   -0.1286 C.3     1  UNL1       -0.0124
     23 C           1.8918    2.3373   -1.3898 C.ar    1  UNL1       -0.0546
     24 C           0.0691    2.9497    0.1229 C.ar    1  UNL1        0.1588
     25 C           1.0028    3.2954   -0.8623 C.ar    1  UNL1       -0.0162
     26 H           1.0193   -2.6716    0.2495 H       1  UNL1        0.0368
     27 H           2.6713   -2.2599   -1.5702 H       1  UNL1        0.0472
     28 H          -0.7284   -0.7687    2.3228 H       1  UNL1        0.0772
     29 H           1.6217   -1.6459    2.4985 H       1  UNL1        0.0287
     30 H           1.7782    0.1000    2.6526 H       1  UNL1        0.0287
     31 H           2.3286   -0.2058   -2.5534 H       1  UNL1        0.0329
     32 H           3.7318    0.1933   -1.5789 H       1  UNL1        0.0329
     33 H           3.6621    0.1833    1.1618 H       1  UNL1        0.0427
     34 H           3.9272   -1.1570    2.2632 H       1  UNL1        0.0427
     35 H          -2.0137   -1.9401    0.9082 H       1  UNL1        0.0684
     36 H           0.2039   -2.0410   -2.2879 H       1  UNL1        0.0573
     37 H          -1.9885   -1.4755   -1.7907 H       1  UNL1        0.0596
     38 H           5.2569   -0.8975   -0.4452 H       1  UNL1        0.0391
     39 H           4.9288   -2.5686   -0.9536 H       1  UNL1        0.0391
     40 H           5.4487   -2.2405    0.6899 H       1  UNL1        0.0391
     41 H           2.5641    2.6207   -2.1951 H       1  UNL1        0.0622
     42 H           1.0227    4.3082   -1.2582 H       1  UNL1        0.0655
     43 H          -1.3898    3.4271    1.2447 H       1  UNL1        0.2923
     44 H          -6.2165    0.3137   -0.3527 H       1  UNL1        0.2220
     45 H          -5.3766   -2.5161    0.4465 H       1  UNL1        0.2220
@<TRIPOS>BOND
     1     1     3    1
     2     1     5    1
     3     1     6    1
     4     1     7    2
     5     2    12    1
     6     2    20    1
     7     3    17    1
     8     4    24    1
     9     4    43    1
    10     5    44    1
    11     6    45    1
    12     8    11    1
    13     8    16    1
    14     8    22    1
    15     9    10    1
    16     9    12    1
    17     9    13    1
    18     9    14    1
    19    10    11    1
    20    10    19    1
    21    10    26    1
    22    11    15    1
    23    11    27    1
    24    12    17    1
    25    12    28    1
    26    13    16    1
    27    13    29    1
    28    13    30    1
    29    14    18   ar
    30    14    20   ar
    31    15    18    1
    32    15    31    1
    33    15    32    1
    34    16    33    1
    35    16    34    1
    36    17    21    1
    37    17    35    1
    38    18    23   ar
    39    19    21    2
    40    19    36    1
    41    20    24   ar
    42    21    37    1
    43    22    38    1
    44    22    39    1
    45    22    40    1
    46    23    25   ar
    47    23    41    1
    48    24    25   ar
    49    25    42    1
@<TRIPOS>MOLECULE
129850019
 40 44 0 0 0
SMALL
GASTEIGER

@<TRIPOS>ATOM
      1 O          -1.9930   -0.4742    1.2003 O.3     1  UNL1       -0.4811
      2 O          -2.7824   -2.5172   -0.2217 O.3     1  UNL1       -0.3841
      3 O          -3.6221    1.8422    0.5579 O.3     1  UNL1       -0.5033
      4 N           3.1776   -0.0101    0.4474 N.3     1  UNL1       -0.3015
      5 C           0.3699   -0.7149    0.6615 C.3     1  UNL1        0.0480
      6 C           1.2912   -1.3045   -0.4171 C.3     1  UNL1        0.0064
      7 C           2.3441   -0.2021   -0.7641 C.3     1  UNL1        0.0213
      8 C          -0.9377   -1.4752    0.9848 C.3     1  UNL1        0.1399
      9 C           1.1988   -0.3907    1.9201 C.3     1  UNL1       -0.0263
     10 C          -0.2516    0.5303    0.1205 C.ar    1  UNL1        0.0116
     11 C           1.6886    1.1053   -1.3278 C.3     1  UNL1       -0.0110
     12 C           2.4316    0.4754    1.6126 C.3     1  UNL1       -0.0001
     13 C           0.3384    1.4307   -0.7479 C.ar    1  UNL1       -0.0383
     14 C          -1.3630   -2.5068   -0.0924 C.3     1  UNL1        0.1110
     15 C           0.5065   -1.8181   -1.5972 C.2     1  UNL1       -0.0799
     16 C          -1.5672    0.6305    0.5136 C.ar    1  UNL1        0.1663
     17 C          -0.7154   -2.3490   -1.4426 C.2     1  UNL1       -0.0559
     18 C           4.3733    0.7915    0.2084 C.3     1  UNL1       -0.0124
     19 C          -0.4185    2.5415   -1.1244 C.ar    1  UNL1       -0.0546
     20 C          -2.3311    1.7217    0.1620 C.ar    1  UNL1        0.1588
     21 C          -1.7382    2.6937   -0.6540 C.ar    1  UNL1       -0.0162
     22 H           1.8277   -2.1759   -0.0119 H       1  UNL1        0.0368
     23 H           3.0030   -0.6034   -1.5467 H       1  UNL1        0.0472
     24 H          -0.8452   -2.0125    1.9375 H       1  UNL1        0.0772
     25 H           1.5365   -1.3336    2.3712 H       1  UNL1        0.0287
     26 H           0.5899    0.1175    2.6790 H       1  UNL1        0.0287
     27 H           1.5473    0.9598   -2.4075 H       1  UNL1        0.0329
     28 H           2.3530    1.9681   -1.2192 H       1  UNL1        0.0329
     29 H           2.1272    1.5205    1.4761 H       1  UNL1        0.0427
     30 H           3.0802    0.4583    2.4976 H       1  UNL1        0.0427
     31 H          -1.0772   -3.5035    0.2688 H       1  UNL1        0.0675
     32 H           0.9602   -1.7946   -2.5831 H       1  UNL1        0.0573
     33 H          -1.2271   -2.7501   -2.3128 H       1  UNL1        0.0596
     34 H           5.0444    0.7350    1.0730 H       1  UNL1        0.0391
     35 H           4.1501    1.8478    0.0287 H       1  UNL1        0.0391
     36 H           4.9380    0.4053   -0.6472 H       1  UNL1        0.0391
     37 H          -0.0061    3.2826   -1.8039 H       1  UNL1        0.0622
     38 H          -2.3068    3.5663   -0.9675 H       1  UNL1        0.0655
     39 H          -3.0211   -3.2212   -0.8488 H       1  UNL1        0.2104
     40 H          -3.9842    2.6712    0.2004 H       1  UNL1        0.2923
@<TRIPOS>BOND
     1     1     8    1
     2     1    16    1
     3     2    14    1
     4     2    39    1
     5     3    20    1
     6     3    40    1
     7     4     7    1
     8     4    12    1
     9     4    18    1
    10     5     6    1
    11     5     8    1
    12     5     9    1
    13     5    10    1
    14     6     7    1
    15     6    15    1
    16     6    22    1
    17     7    11    1
    18     7    23    1
    19     8    14    1
    20     8    24    1
    21     9    12    1
    22     9    25    1
    23     9    26    1
    24    10    13   ar
    25    10    16   ar
    26    11    13    1
    27    11    27    1
    28    11    28    1
    29    12    29    1
    30    12    30    1
    31    13    19   ar
    32    14    17    1
    33    14    31    1
    34    15    17    2
    35    15    32    1
    36    16    20   ar
    37    17    33    1
    38    18    34    1
    39    18    35    1
    40    18    36    1
    41    19    21   ar
    42    19    37    1
    43    20    21   ar
    44    21    38    1
@<TRIPOS>MOLECULE
70137616
 56 60 0 0 0
SMALL
GASTEIGER

@<TRIPOS>ATOM
      1 O          -0.3782    1.5110   -0.9588 O.2     1  UNL1       -0.4861
      2 O           0.4104    3.8452   -0.0363 O.3     1  UNL1       -0.3841
      3 O          -1.9574    0.8478    1.5867 O.3     1  UNL1       -0.3806
      4 N           3.8323   -1.6506   -0.7098 N.3     1  UNL1       -0.3015
      5 N          -7.8249   -0.6597   -0.8775 N.3     1  UNL1       -0.3300
      6 C           1.7877    0.4141   -0.7789 C.3     1  UNL1        0.0476
      7 C           3.0528    0.5283    0.0905 C.3     1  UNL1        0.0063
      8 C           1.0604    1.7447   -1.1116 C.3     1  UNL1        0.1394
      9 C           3.4408   -0.9197    0.5187 C.3     1  UNL1        0.0213
     10 C           0.7094   -0.2554   -0.0008 C.2     1  UNL1        0.0063
     11 C           2.1305   -0.4034   -2.0409 C.3     1  UNL1       -0.0263
     12 C           2.3216   -1.6011    1.3700 C.3     1  UNL1       -0.0114
     13 C           0.9033   -1.3061    0.9524 C.2     1  UNL1       -0.0426
     14 C          -0.4446    0.3730   -0.1718 C.2     1  UNL1        0.1340
     15 C           2.7641   -1.7637   -1.7084 C.3     1  UNL1       -0.0001
     16 C           1.4992    2.9515   -0.2464 C.3     1  UNL1        0.1110
     17 C           2.8554    1.4913    1.2343 C.2     1  UNL1       -0.0799
     18 C          -1.7175   -0.0480    0.4946 C.3     1  UNL1        0.1263
     19 C           2.1182    2.6004    1.0767 C.2     1  UNL1       -0.0559
     20 C          -1.5935   -1.4890    1.0876 C.3     1  UNL1        0.0019
     21 C          -0.1845   -1.9046    1.4699 C.2     1  UNL1       -0.0773
     22 C          -2.9230    0.0265   -0.4451 C.3     1  UNL1       -0.0166
     23 C           4.4495   -2.9457   -0.4434 C.3     1  UNL1       -0.0124
     24 C          -4.2069   -0.3716    0.2748 C.3     1  UNL1       -0.0489
     25 C          -5.4052   -0.3257   -0.6758 C.3     1  UNL1       -0.0405
     26 C          -6.6997   -0.6895    0.0494 C.3     1  UNL1       -0.0069
     27 H           3.8803    0.9391   -0.5082 H       1  UNL1        0.0368
     28 H           1.1997    2.0177   -2.1655 H       1  UNL1        0.0771
     29 H           4.3366   -0.8483    1.1513 H       1  UNL1        0.0472
     30 H           2.8341    0.1730   -2.6569 H       1  UNL1        0.0287
     31 H           1.2392   -0.5671   -2.6606 H       1  UNL1        0.0287
     32 H           2.4354   -1.2339    2.4001 H       1  UNL1        0.0329
     33 H           2.4775   -2.6836    1.4294 H       1  UNL1        0.0329
     34 H           1.9890   -2.4655   -1.3772 H       1  UNL1        0.0427
     35 H           3.1742   -2.1769   -2.6385 H       1  UNL1        0.0427
     36 H           2.2595    3.5098   -0.8081 H       1  UNL1        0.0675
     37 H           3.3527    1.3045    2.1807 H       1  UNL1        0.0573
     38 H           2.0331    3.3004    1.9025 H       1  UNL1        0.0596
     39 H          -1.9498   -2.2383    0.3687 H       1  UNL1        0.0340
     40 H          -2.2116   -1.5708    1.9908 H       1  UNL1        0.0340
     41 H          -0.0751   -2.7022    2.1989 H       1  UNL1        0.0576
     42 H          -2.7663   -0.6186   -1.3191 H       1  UNL1        0.0297
     43 H          -3.0439    1.0523   -0.8180 H       1  UNL1        0.0297
     44 H           5.2627   -2.8491    0.2842 H       1  UNL1        0.0391
     45 H           4.8994   -3.3451   -1.3595 H       1  UNL1        0.0391
     46 H           3.7366   -3.6883   -0.0712 H       1  UNL1        0.0391
     47 H           0.7508    4.6294    0.4275 H       1  UNL1        0.2104
     48 H          -1.2151    0.7725    2.2107 H       1  UNL1        0.2108
     49 H          -4.3944    0.3024    1.1191 H       1  UNL1        0.0267
     50 H          -4.1376   -1.3866    0.6796 H       1  UNL1        0.0267
     51 H          -5.2378   -1.0204   -1.5087 H       1  UNL1        0.0277
     52 H          -5.4924    0.6799   -1.1067 H       1  UNL1        0.0277
     53 H          -6.8857    0.0133    0.8690 H       1  UNL1        0.0422
     54 H          -6.6209   -1.6928    0.4814 H       1  UNL1        0.0422
     55 H          -8.6867   -0.8532   -0.3690 H       1  UNL1        0.1182
     56 H          -7.9261    0.2775   -1.2649 H       1  UNL1        0.1182
@<TRIPOS>BOND
     1     1     8    1
     2     1    14    1
     3     2    16    1
     4     2    47    1
     5     3    18    1
     6     3    48    1
     7     4     9    1
     8     4    15    1
     9     4    23    1
    10     5    26    1
    11     5    55    1
    12     5    56    1
    13     6     7    1
    14     6     8    1
    15     6    10    1
    16     6    11    1
    17     7     9    1
    18     7    17    1
    19     7    27    1
    20     8    16    1
    21     8    28    1
    22     9    12    1
    23     9    29    1
    24    10    13    1
    25    10    14    2
    26    11    15    1
    27    11    30    1
    28    11    31    1
    29    12    13    1
    30    12    32    1
    31    12    33    1
    32    13    21    2
    33    14    18    1
    34    15    34    1
    35    15    35    1
    36    16    19    1
    37    16    36    1
    38    17    19    2
    39    17    37    1
    40    18    20    1
    41    18    22    1
    42    19    38    1
    43    20    21    1
    44    20    39    1
    45    20    40    1
    46    21    41    1
    47    22    24    1
    48    22    42    1
    49    22    43    1
    50    23    44    1
    51    23    45    1
    52    23    46    1
    53    24    25    1
    54    24    49    1
    55    24    50    1
    56    25    26    1
    57    25    51    1
    58    25    52    1
    59    26    53    1
    60    26    54    1
@<TRIPOS>MOLECULE
71315308
 64 70 0 0 0
SMALL
GASTEIGER

@<TRIPOS>ATOM
      1 O           2.2013    0.3497    1.4732 O.3     1  UNL1       -0.4761
      2 O           3.3038    2.9189    1.6241 O.2     1  UNL1       -0.2887
      3 O           3.7894   -1.5041   -0.1324 O.3     1  UNL1       -0.4837
      4 O          -4.7310    0.2065   -0.2249 O.3     1  UNL1       -0.4455
      5 O          -4.3552    2.0835   -1.4739 O.2     1  UNL1       -0.2262
      6 N          -2.6086    1.1136   -0.2752 N.am    1  UNL1       -0.2635
      7 C           0.0773    1.2791    0.7985 C.3     1  UNL1        0.0531
      8 C          -0.6154    2.5030    0.1996 C.3     1  UNL1        0.0102
      9 C          -1.5686    1.9687   -0.9060 C.3     1  UNL1        0.0403
     10 C           1.3379    1.5216    1.6349 C.3     1  UNL1        0.1720
     11 C          -0.9829    0.4339    1.5328 C.3     1  UNL1       -0.0228
     12 C           0.7277    0.4680   -0.2682 C.ar    1  UNL1        0.0120
     13 C          -0.8456    1.1883   -2.0501 C.3     1  UNL1       -0.0079
     14 C          -2.1611    0.0419    0.6304 C.3     1  UNL1        0.0191
     15 C           0.3062    0.3424   -1.5774 C.ar    1  UNL1       -0.0380
     16 C           0.3490    3.5618   -0.2523 C.2     1  UNL1       -0.0748
     17 C           1.8959   -0.0939    0.2067 C.ar    1  UNL1        0.1671
     18 C           2.1666    2.7290    1.1923 C.2     1  UNL1        0.1969
     19 C           1.6024    3.6801    0.2002 C.2     1  UNL1       -0.0190
     20 C           1.0606   -0.4915   -2.4029 C.ar    1  UNL1       -0.0545
     21 C           2.6483   -0.9305   -0.5851 C.ar    1  UNL1        0.1627
     22 C          -3.9367    1.2078   -0.7190 C.2     1  UNL1        0.4034
     23 C           2.2110   -1.1385   -1.9013 C.ar    1  UNL1       -0.0160
     24 C           4.8264   -1.7423   -1.0873 C.3     1  UNL1        0.1148
     25 C          -6.1024    0.2270   -0.6374 C.3     1  UNL1        0.1191
     26 C           6.1546   -1.6932   -0.3907 C.ar    1  UNL1       -0.0104
     27 C          -6.8208   -0.9305   -0.0083 C.ar    1  UNL1       -0.0103
     28 C           6.8430   -0.4846   -0.2858 C.ar    1  UNL1       -0.0554
     29 C           6.7007   -2.8563    0.1518 C.ar    1  UNL1       -0.0554
     30 C          -6.8785   -2.1578   -0.6685 C.ar    1  UNL1       -0.0554
     31 C          -7.4307   -0.7788    1.2368 C.ar    1  UNL1       -0.0554
     32 C           8.0778   -0.4392    0.3616 C.ar    1  UNL1       -0.0614
     33 C           7.9353   -2.8109    0.7992 C.ar    1  UNL1       -0.0614
     34 C          -7.5464   -3.2337   -0.0834 C.ar    1  UNL1       -0.0614
     35 C          -8.0986   -1.8545    1.8219 C.ar    1  UNL1       -0.0614
     36 C           8.6239   -1.6023    0.9041 C.ar    1  UNL1       -0.0617
     37 C          -8.1565   -3.0820    1.1618 C.ar    1  UNL1       -0.0617
     38 H          -1.2331    2.9844    0.9726 H       1  UNL1        0.0371
     39 H          -2.0818    2.8192   -1.3720 H       1  UNL1        0.0511
     40 H           1.1055    1.6480    2.6987 H       1  UNL1        0.0827
     41 H          -1.3719    1.0198    2.3765 H       1  UNL1        0.0290
     42 H          -0.5501   -0.4768    1.9661 H       1  UNL1        0.0290
     43 H          -1.5628    0.5637   -2.5957 H       1  UNL1        0.0331
     44 H          -0.4384    1.9224   -2.7572 H       1  UNL1        0.0331
     45 H          -1.8897   -0.8116   -0.0019 H       1  UNL1        0.0466
     46 H          -2.9928   -0.2919    1.2598 H       1  UNL1        0.0466
     47 H          -0.0184    4.3067   -0.9536 H       1  UNL1        0.0577
     48 H           2.2430    4.4860   -0.1403 H       1  UNL1        0.0650
     49 H           0.7782   -0.6365   -3.4423 H       1  UNL1        0.0622
     50 H           2.7461   -1.7960   -2.5818 H       1  UNL1        0.0655
     51 H           4.6761   -2.7268   -1.5473 H       1  UNL1        0.0748
     52 H           4.8302   -0.9898   -1.8877 H       1  UNL1        0.0748
     53 H          -6.1609    0.1592   -1.7308 H       1  UNL1        0.0749
     54 H          -6.5670    1.1723   -0.3307 H       1  UNL1        0.0749
     55 H           6.4266    0.4290   -0.7018 H       1  UNL1        0.0621
     56 H           6.1730   -3.8035    0.0783 H       1  UNL1        0.0621
     57 H          -6.4052   -2.2889   -1.6379 H       1  UNL1        0.0621
     58 H          -7.3906    0.1718    1.7619 H       1  UNL1        0.0621
     59 H           8.6135    0.5020    0.4440 H       1  UNL1        0.0618
     60 H           8.3604   -3.7164    1.2222 H       1  UNL1        0.0618
     61 H          -7.5910   -4.1896   -0.5971 H       1  UNL1        0.0618
     62 H          -8.5731   -1.7367    2.7917 H       1  UNL1        0.0618
     63 H           9.5851   -1.5670    1.4085 H       1  UNL1        0.0618
     64 H          -8.6763   -3.9197    1.6175 H       1  UNL1        0.0618
@<TRIPOS>BOND
     1     1    10    1
     2     1    17    1
     3     2    18    2
     4     3    21    1
     5     3    24    1
     6     4    22    1
     7     4    25    1
     8     5    22    2
     9     6     9    1
    10     6    14    1
    11     6    22   am
    12     7     8    1
    13     7    10    1
    14     7    11    1
    15     7    12    1
    16     8     9    1
    17     8    16    1
    18     8    38    1
    19     9    13    1
    20     9    39    1
    21    10    18    1
    22    10    40    1
    23    11    14    1
    24    11    41    1
    25    11    42    1
    26    12    15   ar
    27    12    17   ar
    28    13    15    1
    29    13    43    1
    30    13    44    1
    31    14    45    1
    32    14    46    1
    33    15    20   ar
    34    16    19    2
    35    16    47    1
    36    17    21   ar
    37    18    19    1
    38    19    48    1
    39    20    23   ar
    40    20    49    1
    41    21    23   ar
    42    23    50    1
    43    24    26    1
    44    24    51    1
    45    24    52    1
    46    25    27    1
    47    25    53    1
    48    25    54    1
    49    26    28   ar
    50    26    29   ar
    51    27    30   ar
    52    27    31   ar
    53    28    32   ar
    54    28    55    1
    55    29    33   ar
    56    29    56    1
    57    30    34   ar
    58    30    57    1
    59    31    35   ar
    60    31    58    1
    61    32    36   ar
    62    32    59    1
    63    33    36   ar
    64    33    60    1
    65    34    37   ar
    66    34    61    1
    67    35    37   ar
    68    35    62    1
    69    36    63    1
    70    37    64    1
@<TRIPOS>MOLECULE
124037292
 67 71 0 0 0
SMALL
GASTEIGER

@<TRIPOS>ATOM
      1 O          -1.6669   -2.1116   -1.5948 O.3     1  UNL1       -0.4813
      2 O          -3.4429   -0.0818    2.1324 O.3     1  UNL1       -0.3860
      3 O           0.1125   -2.5622    0.4014 O.3     1  UNL1       -0.3706
      4 O           0.3600   -1.7268   -3.6687 O.3     1  UNL1       -0.5033
      5 O           2.8258   -2.2609    0.9234 O.3     1  UNL1       -0.3752
      6 O           3.8813    0.2654    0.3472 O.3     1  UNL1       -0.3752
      7 O           3.8025    3.8951    0.4747 O.3     1  UNL1       -0.3807
      8 N          -3.3193    2.2549    0.6550 N.3     1  UNL1       -0.2993
      9 C          -2.3641   -0.3995   -0.0345 C.3     1  UNL1        0.0701
     10 C          -2.2378    0.1702    1.3856 C.3     1  UNL1        0.0951
     11 C          -2.1944   -1.9203   -0.2330 C.3     1  UNL1        0.1387
     12 C          -2.0558    1.7171    1.2270 C.3     1  UNL1        0.0438
     13 C          -3.6445    0.1634   -0.7021 C.3     1  UNL1       -0.0242
     14 C          -1.2031    0.0097   -0.8718 C.ar    1  UNL1        0.0137
     15 C          -1.1354   -0.5273    2.1952 C.3     1  UNL1       -0.0191
     16 C          -1.2624   -2.6329    0.7861 C.3     1  UNL1        0.0965
     17 C          -0.7656    2.0881    0.4150 C.3     1  UNL1       -0.0089
     18 C          -1.3539   -2.0500    2.1957 C.3     1  UNL1       -0.0204
     19 C          -3.6895    1.7045   -0.6543 C.3     1  UNL1        0.0000
     20 C          -0.4764    1.1775   -0.7487 C.ar    1  UNL1       -0.0382
     21 C          -0.9201   -0.9707   -1.8034 C.ar    1  UNL1        0.1664
     22 C          -3.3915    3.7119    0.6626 C.3     1  UNL1       -0.0124
     23 C           0.5417    1.3805   -1.6799 C.ar    1  UNL1       -0.0546
     24 C           0.0677   -0.7823   -2.7422 C.ar    1  UNL1        0.1588
     25 C           0.7967    0.4147   -2.6793 C.ar    1  UNL1       -0.0162
     26 C           0.8597   -3.6260    0.9684 C.3     1  UNL1        0.0715
     27 C           2.3014   -3.5170    0.5106 C.3     1  UNL1        0.0711
     28 C           4.1789   -2.1037    0.5199 C.3     1  UNL1        0.0711
     29 C           4.6733   -0.7412    0.9661 C.3     1  UNL1        0.0711
     30 C           4.2872    1.5667    0.7478 C.3     1  UNL1        0.0711
     31 C           3.4095    2.5931    0.0578 C.3     1  UNL1        0.0706
     32 C           3.0255    4.9014   -0.1595 C.3     1  UNL1        0.0365
     33 H          -3.1797   -2.4015   -0.1848 H       1  UNL1        0.0769
     34 H          -1.9599    2.1503    2.2320 H       1  UNL1        0.0494
     35 H          -4.5274   -0.2357   -0.1857 H       1  UNL1        0.0288
     36 H          -3.7341   -0.1584   -1.7479 H       1  UNL1        0.0288
     37 H          -1.1609   -0.1782    3.2352 H       1  UNL1        0.0294
     38 H          -0.1353   -0.2995    1.8111 H       1  UNL1        0.0294
     39 H          -1.5644   -3.6886    0.8006 H       1  UNL1        0.0633
     40 H           0.0866    2.0169    1.1031 H       1  UNL1        0.0329
     41 H          -0.7961    3.1269    0.0719 H       1  UNL1        0.0329
     42 H          -0.6314   -2.4926    2.8857 H       1  UNL1        0.0292
     43 H          -2.3419   -2.2816    2.6122 H       1  UNL1        0.0292
     44 H          -3.0463    2.1153   -1.4425 H       1  UNL1        0.0427
     45 H          -4.7121    2.0145   -0.9041 H       1  UNL1        0.0427
     46 H          -3.3784    0.4010    2.9741 H       1  UNL1        0.2103
     47 H          -2.7249    4.1740   -0.0723 H       1  UNL1        0.0391
     48 H          -4.4129    4.0405    0.4395 H       1  UNL1        0.0391
     49 H          -3.1472    4.1107    1.6532 H       1  UNL1        0.0391
     50 H           1.1339    2.2895   -1.6587 H       1  UNL1        0.0622
     51 H           1.5937    0.6061   -3.3947 H       1  UNL1        0.0655
     52 H           0.8446   -3.5819    2.0602 H       1  UNL1        0.0583
     53 H           0.4519   -4.5898    0.6429 H       1  UNL1        0.0583
     54 H           1.0909   -1.4057   -4.2243 H       1  UNL1        0.2923
     55 H           2.3447   -3.5752   -0.5833 H       1  UNL1        0.0583
     56 H           2.8946   -4.3315    0.9406 H       1  UNL1        0.0583
     57 H           4.7954   -2.8900    0.9690 H       1  UNL1        0.0583
     58 H           4.2355   -2.1766   -0.5724 H       1  UNL1        0.0583
     59 H           4.5757   -0.6511    2.0543 H       1  UNL1        0.0583
     60 H           5.7240   -0.6138    0.6834 H       1  UNL1        0.0583
     61 H           4.1996    1.6728    1.8360 H       1  UNL1        0.0583
     62 H           5.3376    1.7350    0.4810 H       1  UNL1        0.0583
     63 H           2.3660    2.4215    0.3365 H       1  UNL1        0.0582
     64 H           3.5023    2.4962   -1.0300 H       1  UNL1        0.0582
     65 H           3.3646    5.8766    0.2000 H       1  UNL1        0.0524
     66 H           1.9670    4.7843    0.0928 H       1  UNL1        0.0524
     67 H           3.1603    4.8627   -1.2448 H       1  UNL1        0.0524
@<TRIPOS>BOND
     1     1    11    1
     2     1    21    1
     3     2    10    1
     4     2    46    1
     5     3    16    1
     6     3    26    1
     7     4    24    1
     8     4    54    1
     9     5    27    1
    10     5    28    1
    11     6    29    1
    12     6    30    1
    13     7    31    1
    14     7    32    1
    15     8    12    1
    16     8    19    1
    17     8    22    1
    18     9    10    1
    19     9    11    1
    20     9    13    1
    21     9    14    1
    22    10    12    1
    23    10    15    1
    24    11    16    1
    25    11    33    1
    26    12    17    1
    27    12    34    1
    28    13    19    1
    29    13    35    1
    30    13    36    1
    31    14    20   ar
    32    14    21   ar
    33    15    18    1
    34    15    37    1
    35    15    38    1
    36    16    18    1
    37    16    39    1
    38    17    20    1
    39    17    40    1
    40    17    41    1
    41    18    42    1
    42    18    43    1
    43    19    44    1
    44    19    45    1
    45    20    23   ar
    46    21    24   ar
    47    22    47    1
    48    22    48    1
    49    22    49    1
    50    23    25   ar
    51    23    50    1
    52    24    25   ar
    53    25    51    1
    54    26    27    1
    55    26    52    1
    56    26    53    1
    57    27    55    1
    58    27    56    1
    59    28    29    1
    60    28    57    1
    61    28    58    1
    62    29    59    1
    63    29    60    1
    64    30    31    1
    65    30    61    1
    66    30    62    1
    67    31    63    1
    68    31    64    1
    69    32    65    1
    70    32    66    1
    71    32    67    1
@<TRIPOS>MOLECULE
18666969
 44 48 0 0 0
SMALL
GASTEIGER

@<TRIPOS>ATOM
      1 S          -4.1943    0.6679    0.4699 S.O2    1  UNL1        0.2514
      2 O          -1.0070   -1.2936    0.7986 O.3     1  UNL1       -0.4810
      3 O          -0.5043   -3.6452   -0.2195 O.3     1  UNL1       -0.3841
      4 O          -3.2180   -0.0706   -0.6319 O.3     1  UNL1       -0.3213
      5 O          -5.5694   -0.2103    0.4202 O.3     1  UNL1       -0.2222
      6 O          -3.6135    0.5130    1.7909 O.2     1  UNL1       -0.1077
      7 O          -4.5083    1.9930   -0.0323 O.2     1  UNL1       -0.1077
      8 N           3.5287    1.3416    0.8398 N.3     1  UNL1       -0.3015
      9 C           1.3000   -0.5155    0.7367 C.3     1  UNL1        0.0480
     10 C           2.6225   -0.7676   -0.0035 C.3     1  UNL1        0.0064
     11 C           3.1836    0.6320   -0.4158 C.3     1  UNL1        0.0213
     12 C           0.3819   -1.7311    1.0035 C.3     1  UNL1        0.1399
     13 C           1.5752    0.3150    2.0058 C.3     1  UNL1       -0.0263
     14 C           0.3840    0.2299   -0.1769 C.ar    1  UNL1        0.0117
     15 C           2.2181    1.4140   -1.3715 C.3     1  UNL1       -0.0110
     16 C           2.3805    1.5925    1.7167 C.3     1  UNL1       -0.0001
     17 C           0.7541    1.1721   -1.1195 C.ar    1  UNL1       -0.0383
     18 C           0.7035   -2.9796    0.1411 C.3     1  UNL1        0.1110
     19 C           2.4436   -1.7348   -1.1458 C.2     1  UNL1       -0.0799
     20 C          -0.9103   -0.2205   -0.0454 C.ar    1  UNL1        0.1695
     21 C           1.5495   -2.7325   -1.0795 C.2     1  UNL1       -0.0559
     22 C          -0.2676    1.7604   -1.8669 C.ar    1  UNL1       -0.0545
     23 C           4.3103    2.5550    0.6251 C.3     1  UNL1       -0.0124
     24 C          -1.9364    0.3507   -0.7655 C.ar    1  UNL1        0.2004
     25 C          -1.6064    1.3643   -1.6742 C.ar    1  UNL1       -0.0130
     26 H           3.3458   -1.2399    0.6784 H       1  UNL1        0.0368
     27 H           4.1237    0.4681   -0.9606 H       1  UNL1        0.0472
     28 H           0.4406   -2.0341    2.0569 H       1  UNL1        0.0772
     29 H           2.1418   -0.3036    2.7148 H       1  UNL1        0.0287
     30 H           0.6411    0.5925    2.5113 H       1  UNL1        0.0287
     31 H           2.4275    1.0752   -2.3953 H       1  UNL1        0.0329
     32 H           2.4208    2.4894   -1.3571 H       1  UNL1        0.0329
     33 H           1.7215    2.3591    1.2905 H       1  UNL1        0.0427
     34 H           2.7315    1.9900    2.6773 H       1  UNL1        0.0427
     35 H           1.2691   -3.6814    0.7679 H       1  UNL1        0.0675
     36 H           3.0820   -1.6439   -2.0190 H       1  UNL1        0.0573
     37 H           1.4855   -3.4352   -1.9054 H       1  UNL1        0.0596
     38 H          -0.0363    2.5072   -2.6217 H       1  UNL1        0.0622
     39 H           5.1803    2.3523   -0.0090 H       1  UNL1        0.0391
     40 H           4.7025    2.9249    1.5793 H       1  UNL1        0.0391
     41 H           3.7288    3.3622    0.1688 H       1  UNL1        0.0391
     42 H          -2.3851    1.8310   -2.2729 H       1  UNL1        0.0656
     43 H          -0.2670   -4.4594   -0.6957 H       1  UNL1        0.2104
     44 H          -6.2840    0.0912    1.0291 H       1  UNL1        0.2479
@<TRIPOS>BOND
     1     1     4    1
     2     1     5    1
     3     1     6    2
     4     1     7    2
     5     2    12    1
     6     2    20    1
     7     3    18    1
     8     3    43    1
     9     4    24    1
    10     5    44    1
    11     8    11    1
    12     8    16    1
    13     8    23    1
    14     9    10    1
    15     9    12    1
    16     9    13    1
    17     9    14    1
    18    10    11    1
    19    10    19    1
    20    10    26    1
    21    11    15    1
    22    11    27    1
    23    12    18    1
    24    12    28    1
    25    13    16    1
    26    13    29    1
    27    13    30    1
    28    14    17   ar
    29    14    20   ar
    30    15    17    1
    31    15    31    1
    32    15    32    1
    33    16    33    1
    34    16    34    1
    35    17    22   ar
    36    18    21    1
    37    18    35    1
    38    19    21    2
    39    19    36    1
    40    20    24   ar
    41    21    37    1
    42    22    25   ar
    43    22    38    1
    44    23    39    1
    45    23    40    1
    46    23    41    1
    47    24    25   ar
    48    25    42    1
@<TRIPOS>MOLECULE
44246528
 40 44 0 0 0
SMALL
GASTEIGER

@<TRIPOS>ATOM
      1 O          -1.4516    1.8572   -0.2547 O.3     1  UNL1       -0.4811
      2 O           1.0465    3.2637   -1.0681 O.3     1  UNL1       -0.3841
      3 O          -4.2437    0.8347   -0.4101 O.3     1  UNL1       -0.5033
      4 N           2.3566   -1.6193   -0.5671 N.3     1  UNL1       -0.3015
      5 C           0.4176    0.4172    0.0338 C.3     1  UNL1        0.0480
      6 C           1.3992   -0.0463    1.0922 C.3     1  UNL1        0.0064
      7 C           1.6855   -1.5400    0.7471 C.3     1  UNL1        0.0213
      8 C          -0.1698    1.7662    0.4283 C.3     1  UNL1        0.1399
      9 C           0.9862    0.2678   -1.4050 C.3     1  UNL1       -0.0263
     10 C          -0.8425   -0.3256    0.1224 C.ar    1  UNL1        0.0116
     11 C           0.3269   -2.3836    0.8611 C.3     1  UNL1       -0.0110
     12 C           1.5207   -1.1468   -1.6741 C.3     1  UNL1       -0.0001
     13 C          -0.9407   -1.6595    0.4482 C.ar    1  UNL1       -0.0383
     14 C           0.9029    2.8479    0.2826 C.3     1  UNL1        0.1110
     15 C           2.4831    1.0184    1.1510 C.2     1  UNL1       -0.0799
     16 C          -1.8960    0.5417   -0.1259 C.ar    1  UNL1        0.1663
     17 C           2.2503    2.3056    0.7886 C.2     1  UNL1       -0.0559
     18 C           2.9073   -2.9416   -0.8483 C.3     1  UNL1       -0.0124
     19 C          -2.2323   -2.1726    0.4375 C.ar    1  UNL1       -0.0546
     20 C          -3.1732    0.0447   -0.1591 C.ar    1  UNL1        0.1588
     21 C          -3.3329   -1.3296    0.1194 C.ar    1  UNL1       -0.0162
     22 H           0.9429   -0.0502    2.0948 H       1  UNL1        0.0368
     23 H           2.3817   -1.9288    1.5022 H       1  UNL1        0.0472
     24 H          -0.4265    1.7703    1.5051 H       1  UNL1        0.0772
     25 H           1.8189    0.9594   -1.5723 H       1  UNL1        0.0287
     26 H           0.2314    0.5141   -2.1632 H       1  UNL1        0.0287
     27 H           0.2078   -2.6467    1.9208 H       1  UNL1        0.0329
     28 H           0.4044   -3.3263    0.3106 H       1  UNL1        0.0329
     29 H           0.6888   -1.8345   -1.8692 H       1  UNL1        0.0427
     30 H           2.1132   -1.1132   -2.5971 H       1  UNL1        0.0427
     31 H           0.6116    3.7295    0.8638 H       1  UNL1        0.0675
     32 H           3.4608    0.7345    1.5277 H       1  UNL1        0.0573
     33 H           3.0653    3.0212    0.8610 H       1  UNL1        0.0596
     34 H           3.5569   -3.2747   -0.0315 H       1  UNL1        0.0391
     35 H           3.5335   -2.9069   -1.7470 H       1  UNL1        0.0391
     36 H           2.1350   -3.7006   -1.0080 H       1  UNL1        0.0391
     37 H          -2.4140   -3.2149    0.6843 H       1  UNL1        0.0622
     38 H          -4.3301   -1.7665    0.1199 H       1  UNL1        0.0655
     39 H           1.7411    3.9437   -1.0978 H       1  UNL1        0.2104
     40 H          -5.0491    0.2903   -0.3777 H       1  UNL1        0.2923
@<TRIPOS>BOND
     1     1     8    1
     2     1    16    1
     3     2    14    1
     4     2    39    1
     5     3    20    1
     6     3    40    1
     7     4     7    1
     8     4    12    1
     9     4    18    1
    10     5     6    1
    11     5     8    1
    12     5     9    1
    13     5    10    1
    14     6     7    1
    15     6    15    1
    16     6    22    1
    17     7    11    1
    18     7    23    1
    19     8    14    1
    20     8    24    1
    21     9    12    1
    22     9    25    1
    23     9    26    1
    24    10    13   ar
    25    10    16   ar
    26    11    13    1
    27    11    27    1
    28    11    28    1
    29    12    29    1
    30    12    30    1
    31    13    19   ar
    32    14    17    1
    33    14    31    1
    34    15    17    2
    35    15    32    1
    36    16    20   ar
    37    17    33    1
    38    18    34    1
    39    18    35    1
    40    18    36    1
    41    19    21   ar
    42    19    37    1
    43    20    21   ar
    44    21    38    1
@<TRIPOS>MOLECULE
59037120
 51 55 0 0 0
SMALL
GASTEIGER

@<TRIPOS>ATOM
      1 O          -0.1277   -0.7378    1.3184 O.3     1  UNL1       -0.4810
      2 O          -0.6839   -2.9116   -0.0173 O.3     1  UNL1       -0.3841
      3 O          -2.0648    1.3242    0.6652 O.3     1  UNL1       -0.4221
      4 O          -2.6145    0.0065   -1.1859 O.2     1  UNL1       -0.2504
      5 O          -7.6397   -0.5991   -0.7414 O.3     1  UNL1       -0.4806
      6 O          -7.0867    0.4918    1.1773 O.2     1  UNL1       -0.2510
      7 N           4.9129    0.3708    0.3795 N.3     1  UNL1       -0.3015
      8 C           2.2295   -0.6863    0.7079 C.3     1  UNL1        0.0480
      9 C           3.1880   -1.1859   -0.3839 C.3     1  UNL1        0.0064
     10 C           4.0763    0.0323   -0.7973 C.3     1  UNL1        0.0213
     11 C           1.0431   -1.5993    1.0964 C.3     1  UNL1        0.1399
     12 C           3.0455   -0.2160    1.9281 C.3     1  UNL1       -0.0263
     13 C           1.4342    0.4489    0.1526 C.ar    1  UNL1        0.0116
     14 C           3.2387    1.2241   -1.3759 C.3     1  UNL1       -0.0110
     15 C           4.1443    0.7929    1.5547 C.3     1  UNL1       -0.0001
     16 C           1.8752    1.3897   -0.7606 C.ar    1  UNL1       -0.0383
     17 C           0.7252   -2.7124    0.0639 C.3     1  UNL1        0.1110
     18 C           2.4429   -1.8356   -1.5219 C.2     1  UNL1       -0.0799
     19 C           0.1290    0.3899    0.5865 C.ar    1  UNL1        0.1673
     20 C           1.3062   -2.5159   -1.3111 C.2     1  UNL1       -0.0559
     21 C           5.9855    1.3131    0.0778 C.3     1  UNL1       -0.0124
     22 C           0.9683    2.3796   -1.1431 C.ar    1  UNL1       -0.0545
     23 C          -0.7814    1.3601    0.2297 C.ar    1  UNL1        0.1733
     24 C          -0.3455    2.3738   -0.6332 C.ar    1  UNL1       -0.0153
     25 C          -2.9399    0.5866   -0.1590 C.2     1  UNL1        0.3130
     26 C          -4.3359    0.6200    0.4286 C.3     1  UNL1        0.0554
     27 C          -5.3624   -0.0925   -0.4488 C.3     1  UNL1        0.0548
     28 C          -6.7623   -0.0119    0.1126 C.2     1  UNL1        0.3052
     29 H           3.8459   -1.9663    0.0279 H       1  UNL1        0.0368
     30 H           4.7587   -0.3051   -1.5898 H       1  UNL1        0.0472
     31 H           1.2332   -2.0886    2.0605 H       1  UNL1        0.0772
     32 H           3.5173   -1.0916    2.3943 H       1  UNL1        0.0287
     33 H           2.3979    0.2331    2.6922 H       1  UNL1        0.0287
     34 H           3.0859    1.0263   -2.4456 H       1  UNL1        0.0329
     35 H           3.7871    2.1692   -1.3143 H       1  UNL1        0.0329
     36 H           3.7014    1.7843    1.3987 H       1  UNL1        0.0427
     37 H           4.8154    0.8894    2.4175 H       1  UNL1        0.0427
     38 H           1.1498   -3.6510    0.4437 H       1  UNL1        0.0675
     39 H           2.8602   -1.7853   -2.5228 H       1  UNL1        0.0573
     40 H           0.8259   -3.0082   -2.1519 H       1  UNL1        0.0596
     41 H           6.5704    0.9761   -0.7849 H       1  UNL1        0.0391
     42 H           6.6834    1.3727    0.9207 H       1  UNL1        0.0391
     43 H           5.6204    2.3249   -0.1244 H       1  UNL1        0.0391
     44 H           1.2594    3.1454   -1.8570 H       1  UNL1        0.0622
     45 H          -1.0371    3.1516   -0.9488 H       1  UNL1        0.0656
     46 H          -0.8467   -3.6601   -0.6166 H       1  UNL1        0.2104
     47 H          -4.3009    0.1486    1.4173 H       1  UNL1        0.0383
     48 H          -4.6258    1.6696    0.5549 H       1  UNL1        0.0383
     49 H          -5.0929   -1.1501   -0.5495 H       1  UNL1        0.0383
     50 H          -5.3678    0.3602   -1.4472 H       1  UNL1        0.0383
     51 H          -8.5591   -0.5662   -0.4009 H       1  UNL1        0.2951
@<TRIPOS>BOND
     1     1    11    1
     2     1    19    1
     3     2    17    1
     4     2    46    1
     5     3    23    1
     6     3    25    1
     7     4    25    2
     8     5    28    1
     9     5    51    1
    10     6    28    2
    11     7    10    1
    12     7    15    1
    13     7    21    1
    14     8     9    1
    15     8    11    1
    16     8    12    1
    17     8    13    1
    18     9    10    1
    19     9    18    1
    20     9    29    1
    21    10    14    1
    22    10    30    1
    23    11    17    1
    24    11    31    1
    25    12    15    1
    26    12    32    1
    27    12    33    1
    28    13    16   ar
    29    13    19   ar
    30    14    16    1
    31    14    34    1
    32    14    35    1
    33    15    36    1
    34    15    37    1
    35    16    22   ar
    36    17    20    1
    37    17    38    1
    38    18    20    2
    39    18    39    1
    40    19    23   ar
    41    20    40    1
    42    21    41    1
    43    21    42    1
    44    21    43    1
    45    22    24   ar
    46    22    44    1
    47    23    24   ar
    48    24    45    1
    49    25    26    1
    50    26    27    1
    51    26    47    1
    52    26    48    1
    53    27    28    1
    54    27    49    1
    55    27    50    1
@<TRIPOS>MOLECULE
69314272
 63 69 0 0 0
SMALL
GASTEIGER

@<TRIPOS>ATOM
      1 O           1.4148   -1.6660    1.1264 O.3     1  UNL1       -0.4811
      2 O           3.3440   -3.4219    1.2456 O.3     1  UNL1       -0.3841
      3 O          -0.5889   -2.5544   -0.7779 O.3     1  UNL1       -0.4882
      4 O          -5.5846   -1.5099   -0.5101 O.2     1  UNL1       -0.2695
      5 O          -1.7546    0.0403    1.5860 O.2     1  UNL1       -0.2695
      6 N           3.6548    2.9869    0.2035 N.3     1  UNL1       -0.3015
      7 N          -3.5337   -1.1510    0.5950 N.am    1  UNL1       -0.2340
      8 C           2.8730    0.2615    0.8254 C.3     1  UNL1        0.0480
      9 C           4.2774    0.6247    0.3196 C.3     1  UNL1        0.0064
     10 C           4.1108    1.8517   -0.6347 C.3     1  UNL1        0.0213
     11 C           2.6986   -1.0911    1.5550 C.3     1  UNL1        0.1399
     12 C           2.2937    1.4479    1.6208 C.3     1  UNL1       -0.0263
     13 C           2.0096   -0.0362   -0.3559 C.ar    1  UNL1        0.0116
     14 C           3.2006    1.5379   -1.8716 C.3     1  UNL1       -0.0110
     15 C           2.3514    2.7713    0.8399 C.3     1  UNL1       -0.0001
     16 C           2.0820    0.5688   -1.5978 C.ar    1  UNL1       -0.0383
     17 C           3.8591   -2.0955    1.3303 C.3     1  UNL1        0.1110
     18 C           4.9692   -0.5633   -0.2988 C.2     1  UNL1       -0.0799
     19 C           1.1710   -1.0961   -0.0939 C.ar    1  UNL1        0.1666
     20 C           4.7574   -1.8070    0.1569 C.2     1  UNL1       -0.0559
     21 C           1.1688    0.1470   -2.5656 C.ar    1  UNL1       -0.0546
     22 C           3.7060    4.2734   -0.4833 C.3     1  UNL1       -0.0124
     23 C           0.2555   -1.5241   -1.0299 C.ar    1  UNL1        0.1622
     24 C           0.2485   -0.8796   -2.2736 C.ar    1  UNL1       -0.0160
     25 C          -1.8467   -2.5509   -1.4569 C.3     1  UNL1        0.0912
     26 C          -2.8859   -3.2226   -0.5677 C.3     1  UNL1       -0.0023
     27 C          -3.0786   -2.5043    0.7614 C.3     1  UNL1        0.0260
     28 C          -4.7283   -0.8017   -0.0141 C.2     1  UNL1        0.2538
     29 C          -2.8312   -0.0363    1.0240 C.2     1  UNL1        0.2538
     30 C          -4.7986    0.6581    0.0396 C.ar    1  UNL1        0.0494
     31 C          -3.6515    1.1209    0.6673 C.ar    1  UNL1        0.0494
     32 C          -5.7765    1.5161   -0.4197 C.ar    1  UNL1       -0.0489
     33 C          -3.4218    2.4664    0.8686 C.ar    1  UNL1       -0.0489
     34 C          -5.5657    2.8843   -0.2258 C.ar    1  UNL1       -0.0610
     35 C          -4.3995    3.3548    0.4119 C.ar    1  UNL1       -0.0610
     36 H           4.9095    0.9321    1.1666 H       1  UNL1        0.0368
     37 H           5.1064    2.1152   -1.0177 H       1  UNL1        0.0472
     38 H           2.6025   -0.9353    2.6373 H       1  UNL1        0.0772
     39 H           2.8690    1.5633    2.5494 H       1  UNL1        0.0287
     40 H           1.2543    1.2587    1.9193 H       1  UNL1        0.0287
     41 H           3.8398    1.0811   -2.6393 H       1  UNL1        0.0329
     42 H           2.7944    2.4521   -2.3152 H       1  UNL1        0.0329
     43 H           1.5430    2.8013    0.0989 H       1  UNL1        0.0427
     44 H           2.1486    3.5851    1.5475 H       1  UNL1        0.0427
     45 H           4.5011   -2.0683    2.2205 H       1  UNL1        0.0675
     46 H           5.6835   -0.4000   -1.0998 H       1  UNL1        0.0573
     47 H           5.3116   -2.6295   -0.2861 H       1  UNL1        0.0596
     48 H           1.1826    0.5837   -3.5607 H       1  UNL1        0.0622
     49 H           4.6915    4.4373   -0.9328 H       1  UNL1        0.0391
     50 H           3.5526    5.0893    0.2320 H       1  UNL1        0.0391
     51 H           2.9472    4.3697   -1.2661 H       1  UNL1        0.0391
     52 H          -0.4176   -1.1892   -3.0748 H       1  UNL1        0.0655
     53 H           4.0980   -4.0324    1.1777 H       1  UNL1        0.2104
     54 H          -1.7415   -3.1195   -2.3880 H       1  UNL1        0.0697
     55 H          -2.1885   -1.5373   -1.6993 H       1  UNL1        0.0697
     56 H          -2.5597   -4.2473   -0.3504 H       1  UNL1        0.0313
     57 H          -3.8316   -3.2989   -1.1145 H       1  UNL1        0.0313
     58 H          -3.8461   -3.0365    1.3358 H       1  UNL1        0.0471
     59 H          -2.1561   -2.5166    1.3518 H       1  UNL1        0.0471
     60 H          -6.6725    1.1548   -0.9105 H       1  UNL1        0.0625
     61 H          -2.5252    2.8283    1.3580 H       1  UNL1        0.0625
     62 H          -6.3096    3.5975   -0.5712 H       1  UNL1        0.0618
     63 H          -4.2610    4.4242    0.5489 H       1  UNL1        0.0618
@<TRIPOS>BOND
     1     1    11    1
     2     1    19    1
     3     2    17    1
     4     2    53    1
     5     3    23    1
     6     3    25    1
     7     4    28    2
     8     5    29    2
     9     6    10    1
    10     6    15    1
    11     6    22    1
    12     7    27    1
    13     7    28   am
    14     7    29   am
    15     8     9    1
    16     8    11    1
    17     8    12    1
    18     8    13    1
    19     9    10    1
    20     9    18    1
    21     9    36    1
    22    10    14    1
    23    10    37    1
    24    11    17    1
    25    11    38    1
    26    12    15    1
    27    12    39    1
    28    12    40    1
    29    13    16   ar
    30    13    19   ar
    31    14    16    1
    32    14    41    1
    33    14    42    1
    34    15    43    1
    35    15    44    1
    36    16    21   ar
    37    17    20    1
    38    17    45    1
    39    18    20    2
    40    18    46    1
    41    19    23   ar
    42    20    47    1
    43    21    24   ar
    44    21    48    1
    45    22    49    1
    46    22    50    1
    47    22    51    1
    48    23    24   ar
    49    24    52    1
    50    25    26    1
    51    25    54    1
    52    25    55    1
    53    26    27    1
    54    26    56    1
    55    26    57    1
    56    27    58    1
    57    27    59    1
    58    28    30    1
    59    29    31    1
    60    30    31   ar
    61    30    32   ar
    62    31    33   ar
    63    32    34   ar
    64    32    60    1
    65    33    35   ar
    66    33    61    1
    67    34    35   ar
    68    34    62    1
    69    35    63    1
@<TRIPOS>MOLECULE
137219748
 54 59 0 0 0
SMALL
GASTEIGER

@<TRIPOS>ATOM
      1 O          -1.7565    2.0454    1.2603 O.3     1  UNL1       -0.4810
      2 O          -2.3134    3.7453   -0.6458 O.3     1  UNL1       -0.3841
      3 O           1.1075    1.8610    1.5982 O.3     1  UNL1       -0.5019
      4 N          -4.2111   -2.4868    0.1432 N.3     1  UNL1       -0.3015
      5 N           2.3816   -0.4403    0.6016 N.2     1  UNL1       -0.1455
      6 N           2.9227    0.0772   -0.4025 N.2     1  UNL1       -0.1492
      7 N           8.4873   -0.5235   -0.0924 N.pl3   1  UNL1       -0.3580
      8 C          -3.1898    0.2671    0.4132 C.3     1  UNL1        0.0480
      9 C          -3.8212   -0.2240   -0.8962 C.3     1  UNL1        0.0064
     10 C          -3.5520   -1.7607   -0.9740 C.3     1  UNL1        0.0213
     11 C          -3.0539    1.7946    0.6150 C.3     1  UNL1        0.1399
     12 C          -3.8728   -0.4368    1.6024 C.3     1  UNL1       -0.0263
     13 C          -1.7325   -0.0605    0.3821 C.ar    1  UNL1        0.0117
     14 C          -2.0238   -2.1107   -0.9996 C.3     1  UNL1       -0.0110
     15 C          -3.8518   -1.9692    1.4719 C.3     1  UNL1       -0.0001
     16 C          -1.1544   -1.1723   -0.2057 C.ar    1  UNL1       -0.0363
     17 C          -3.1959    2.6269   -0.6864 C.3     1  UNL1        0.1110
     18 C          -3.3199    0.5619   -2.0818 C.2     1  UNL1       -0.0799
     19 C          -0.9897    0.9611    0.9292 C.ar    1  UNL1        0.1686
     20 C          -3.0174    1.8643   -1.9726 C.2     1  UNL1       -0.0559
     21 C           0.2329   -1.2927   -0.1128 C.ar    1  UNL1       -0.0272
     22 C          -5.6622   -2.5663   -0.0219 C.3     1  UNL1       -0.0124
     23 C           0.3797    0.8612    1.0390 C.ar    1  UNL1        0.1865
     24 C           0.9908   -0.2895    0.5242 C.ar    1  UNL1        0.1313
     25 C           4.3179   -0.0730   -0.3251 C.ar    1  UNL1        0.0863
     26 C           4.9462   -0.1213    0.9194 C.ar    1  UNL1       -0.0328
     27 C           5.0745   -0.1741   -1.4926 C.ar    1  UNL1       -0.0328
     28 C           6.3308   -0.2703    0.9964 C.ar    1  UNL1       -0.0390
     29 C           6.4592   -0.3230   -1.4157 C.ar    1  UNL1       -0.0390
     30 C           7.0873   -0.3711   -0.1712 C.ar    1  UNL1        0.0247
     31 H          -4.9056   -0.0527   -0.8728 H       1  UNL1        0.0368
     32 H          -3.9659   -2.1544   -1.9127 H       1  UNL1        0.0472
     33 H          -3.8087    2.1588    1.3240 H       1  UNL1        0.0772
     34 H          -4.9149   -0.0976    1.6664 H       1  UNL1        0.0287
     35 H          -3.3963   -0.1594    2.5517 H       1  UNL1        0.0287
     36 H          -1.6883   -2.0595   -2.0442 H       1  UNL1        0.0329
     37 H          -1.8599   -3.1433   -0.6672 H       1  UNL1        0.0329
     38 H          -2.8492   -2.3360    1.7239 H       1  UNL1        0.0427
     39 H          -4.4984   -2.4068    2.2436 H       1  UNL1        0.0427
     40 H          -4.2145    3.0358   -0.7120 H       1  UNL1        0.0675
     41 H          -3.2457    0.0721   -3.0477 H       1  UNL1        0.0573
     42 H          -2.7051    2.4076   -2.8598 H       1  UNL1        0.0596
     43 H           0.7316   -2.1521   -0.5551 H       1  UNL1        0.0643
     44 H          -5.9197   -2.9852   -1.0010 H       1  UNL1        0.0391
     45 H          -6.1624   -1.5986    0.0817 H       1  UNL1        0.0391
     46 H          -6.0903   -3.2463    0.7235 H       1  UNL1        0.0391
     47 H          -2.4756    4.2839   -1.4392 H       1  UNL1        0.2104
     48 H           0.4976    2.5651    1.8798 H       1  UNL1        0.2924
     49 H           4.3971   -0.0250    1.8528 H       1  UNL1        0.0640
     50 H           4.5930   -0.1377   -2.4663 H       1  UNL1        0.0640
     51 H           6.8096   -0.3021    1.9719 H       1  UNL1        0.0637
     52 H           7.0377   -0.4009   -2.3327 H       1  UNL1        0.0637
     53 H           8.9430   -0.5558    0.8099 H       1  UNL1        0.1423
     54 H           9.0372   -0.5941   -0.9382 H       1  UNL1        0.1423
@<TRIPOS>BOND
     1     1    11    1
     2     1    19    1
     3     2    17    1
     4     2    47    1
     5     3    23    1
     6     3    48    1
     7     4    10    1
     8     4    15    1
     9     4    22    1
    10     5     6    2
    11     5    24    1
    12     6    25    1
    13     7    30    1
    14     7    53    1
    15     7    54    1
    16     8     9    1
    17     8    11    1
    18     8    12    1
    19     8    13    1
    20     9    10    1
    21     9    18    1
    22     9    31    1
    23    10    14    1
    24    10    32    1
    25    11    17    1
    26    11    33    1
    27    12    15    1
    28    12    34    1
    29    12    35    1
    30    13    16   ar
    31    13    19   ar
    32    14    16    1
    33    14    36    1
    34    14    37    1
    35    15    38    1
    36    15    39    1
    37    16    21   ar
    38    17    20    1
    39    17    40    1
    40    18    20    2
    41    18    41    1
    42    19    23   ar
    43    20    42    1
    44    21    24   ar
    45    21    43    1
    46    22    44    1
    47    22    45    1
    48    22    46    1
    49    23    24   ar
    50    25    26   ar
    51    25    27   ar
    52    26    28   ar
    53    26    49    1
    54    27    29   ar
    55    27    50    1
    56    28    30   ar
    57    28    51    1
    58    29    30   ar
    59    29    52    1
@<TRIPOS>MOLECULE
5491646
 51 55 0 0 0
SMALL
GASTEIGER

@<TRIPOS>ATOM
      1 O          -0.4799    1.0122    1.5024 O.3     1  UNL1       -0.4799
      2 O          -2.4862   -0.3660    0.5566 O.3     1  UNL1       -0.4534
      3 O          -0.6836    3.7646    0.6002 O.3     1  UNL1       -0.5033
      4 O          -3.6274   -2.1031   -0.4448 O.2     1  UNL1       -0.2508
      5 N           3.8893   -1.5843    0.2034 N.3     1  UNL1       -0.3015
      6 C           1.2374   -0.5660    0.8010 C.3     1  UNL1        0.0491
      7 C           1.4844   -1.6760   -0.2320 C.3     1  UNL1        0.0064
      8 C           2.8837   -1.3962   -0.8703 C.3     1  UNL1        0.0213
      9 C          -0.1909   -0.4242    1.3770 C.3     1  UNL1        0.1509
     10 C           2.3188   -0.6383    1.8971 C.3     1  UNL1       -0.0263
     11 C           1.3021    0.7513    0.1011 C.ar    1  UNL1        0.0116
     12 C           2.9501   -0.0109   -1.6009 C.3     1  UNL1       -0.0110
     13 C           3.7456   -0.6495    1.3239 C.3     1  UNL1       -0.0001
     14 C          -1.2902   -1.1413    0.5505 C.3     1  UNL1        0.1587
     15 C           2.1187    1.0725   -0.9682 C.ar    1  UNL1       -0.0383
     16 C           0.3510   -1.7763   -1.2207 C.2     1  UNL1       -0.0788
     17 C           0.3444    1.6116    0.5888 C.ar    1  UNL1        0.1664
     18 C          -0.9133   -1.5111   -0.8595 C.2     1  UNL1       -0.0439
     19 C           5.2630   -1.6207   -0.2874 C.3     1  UNL1       -0.0124
     20 C           2.0290    2.3720   -1.4700 C.ar    1  UNL1       -0.0546
     21 C           0.2426    2.9014    0.1157 C.ar    1  UNL1        0.1588
     22 C           1.1095    3.2850   -0.9156 C.ar    1  UNL1       -0.0162
     23 C          -3.5909   -0.9737    0.0239 C.2     1  UNL1        0.3077
     24 C          -4.7648   -0.0248    0.1051 C.3     1  UNL1        0.0447
     25 C          -6.0309   -0.6291   -0.4970 C.3     1  UNL1       -0.0458
     26 C          -7.2118    0.3209   -0.3805 C.3     1  UNL1       -0.0648
     27 H           1.5273   -2.6523    0.2745 H       1  UNL1        0.0368
     28 H           3.0693   -2.1744   -1.6237 H       1  UNL1        0.0472
     29 H          -0.2349   -0.8208    2.3996 H       1  UNL1        0.0783
     30 H           2.1680   -1.5571    2.4798 H       1  UNL1        0.0287
     31 H           2.2279    0.1972    2.6032 H       1  UNL1        0.0287
     32 H           2.5627   -0.1597   -2.6179 H       1  UNL1        0.0329
     33 H           3.9819    0.3360   -1.7136 H       1  UNL1        0.0329
     34 H           4.0353    0.3662    1.0272 H       1  UNL1        0.0427
     35 H           4.4278   -0.9385    2.1334 H       1  UNL1        0.0427
     36 H          -1.5041   -2.0880    1.0682 H       1  UNL1        0.0817
     37 H           0.5647   -2.0931   -2.2369 H       1  UNL1        0.0574
     38 H          -1.6653   -1.6130   -1.6345 H       1  UNL1        0.0607
     39 H           5.6177   -0.6457   -0.6359 H       1  UNL1        0.0391
     40 H           5.3663   -2.3409   -1.1064 H       1  UNL1        0.0391
     41 H           5.9388   -1.9568    0.5072 H       1  UNL1        0.0391
     42 H           2.6469    2.6810   -2.3088 H       1  UNL1        0.0622
     43 H           1.0519    4.2907   -1.3255 H       1  UNL1        0.0655
     44 H          -1.1908    3.3106    1.2957 H       1  UNL1        0.2923
     45 H          -4.9343    0.2162    1.1606 H       1  UNL1        0.0377
     46 H          -4.5014    0.8927   -0.4331 H       1  UNL1        0.0377
     47 H          -5.8630   -0.8726   -1.5529 H       1  UNL1        0.0268
     48 H          -6.2743   -1.5706    0.0098 H       1  UNL1        0.0268
     49 H          -8.1069   -0.1314   -0.8187 H       1  UNL1        0.0230
     50 H          -7.4268    0.5529    0.6675 H       1  UNL1        0.0230
     51 H          -7.0130    1.2598   -0.9069 H       1  UNL1        0.0230
@<TRIPOS>BOND
     1     1     9    1
     2     1    17    1
     3     2    14    1
     4     2    23    1
     5     3    21    1
     6     3    44    1
     7     4    23    2
     8     5     8    1
     9     5    13    1
    10     5    19    1
    11     6     7    1
    12     6     9    1
    13     6    10    1
    14     6    11    1
    15     7     8    1
    16     7    16    1
    17     7    27    1
    18     8    12    1
    19     8    28    1
    20     9    14    1
    21     9    29    1
    22    10    13    1
    23    10    30    1
    24    10    31    1
    25    11    15   ar
    26    11    17   ar
    27    12    15    1
    28    12    32    1
    29    12    33    1
    30    13    34    1
    31    13    35    1
    32    14    18    1
    33    14    36    1
    34    15    20   ar
    35    16    18    2
    36    16    37    1
    37    17    21   ar
    38    18    38    1
    39    19    39    1
    40    19    40    1
    41    19    41    1
    42    20    22   ar
    43    20    42    1
    44    21    22   ar
    45    22    43    1
    46    23    24    1
    47    24    25    1
    48    24    45    1
    49    24    46    1
    50    25    26    1
    51    25    47    1
    52    25    48    1
    53    26    49    1
    54    26    50    1
    55    26    51    1
@<TRIPOS>MOLECULE
15677950
 46 50 0 0 0
SMALL
GASTEIGER

@<TRIPOS>ATOM
      1 S          -3.8559    0.9297   -0.3407 S.O2    1  UNL1        0.2218
      2 F          -5.0237   -1.3734   -0.1284 F       1  UNL1       -0.1480
      3 F          -4.8183   -0.2698    1.7437 F       1  UNL1       -0.1480
      4 F          -6.3007    0.3506    0.2686 F       1  UNL1       -0.1480
      5 O          -0.1698   -1.3435    1.0319 O.3     1  UNL1       -0.4810
      6 O           0.0265   -3.5266   -0.3877 O.3     1  UNL1       -0.3841
      7 O          -2.5175    0.1475    0.1973 O.3     1  UNL1       -0.3357
      8 O          -3.9512    2.2250    0.3020 O.2     1  UNL1       -0.1277
      9 O          -3.9678    0.7663   -1.7763 O.2     1  UNL1       -0.1277
     10 N           4.4473    1.1202    0.6706 N.3     1  UNL1       -0.3015
     11 C           2.1339   -0.6332    0.6859 C.3     1  UNL1        0.0480
     12 C           3.2990   -0.8086   -0.3002 C.3     1  UNL1        0.0064
     13 C           3.8597    0.6204   -0.5959 C.3     1  UNL1        0.0213
     14 C           1.2076   -1.8477    0.9282 C.3     1  UNL1        0.1399
     15 C           2.6616   -0.0140    1.9952 C.3     1  UNL1       -0.0263
     16 C           1.1211    0.2691    0.0621 C.ar    1  UNL1        0.0117
     17 C           2.7931    1.5668   -1.2469 C.3     1  UNL1       -0.0110
     18 C           3.4765    1.2684    1.7595 C.3     1  UNL1       -0.0001
     19 C           1.3804    1.3325   -0.7837 C.ar    1  UNL1       -0.0383
     20 C           1.3122   -2.9593   -0.1485 C.3     1  UNL1        0.1110
     21 C           2.8796   -1.5849   -1.5223 C.2     1  UNL1       -0.0799
     22 C          -0.1561   -0.1577    0.3484 C.ar    1  UNL1        0.1695
     23 C           1.9556   -2.5544   -1.4480 C.2     1  UNL1       -0.0559
     24 C           0.2825    2.0575   -1.2501 C.ar    1  UNL1       -0.0545
     25 C           5.2478    2.3287    0.5023 C.3     1  UNL1       -0.0124
     26 C          -1.2548    0.5463   -0.0931 C.ar    1  UNL1        0.1984
     27 C          -1.0253    1.6763   -0.8885 C.ar    1  UNL1       -0.0131
     28 C          -5.0432   -0.1323    0.4147 C.3     1  UNL1        0.5560
     29 H           4.0987   -1.4002    0.1707 H       1  UNL1        0.0368
     30 H           4.6856    0.5138   -1.3128 H       1  UNL1        0.0472
     31 H           1.4243   -2.3095    1.9002 H       1  UNL1        0.0772
     32 H           3.3035   -0.7497    2.4984 H       1  UNL1        0.0287
     33 H           1.8415    0.2106    2.6893 H       1  UNL1        0.0287
     34 H           2.8104    1.3817   -2.3296 H       1  UNL1        0.0329
     35 H           3.0541    2.6210   -1.1121 H       1  UNL1        0.0329
     36 H           2.7989    2.1100    1.5693 H       1  UNL1        0.0427
     37 H           4.0039    1.5044    2.6924 H       1  UNL1        0.0427
     38 H           1.9372   -3.7675    0.2533 H       1  UNL1        0.0675
     39 H           3.3677   -1.3808   -2.4703 H       1  UNL1        0.0573
     40 H           1.7138   -3.1223   -2.3418 H       1  UNL1        0.0596
     41 H           0.4267    2.9042   -1.9159 H       1  UNL1        0.0622
     42 H           4.6437    3.2126    0.2751 H       1  UNL1        0.0391
     43 H           5.9877    2.1993   -0.2952 H       1  UNL1        0.0391
     44 H           5.8130    2.5374    1.4178 H       1  UNL1        0.0391
     45 H          -1.8267    2.2876   -1.2897 H       1  UNL1        0.0656
     46 H          -0.3388   -3.7945    0.4728 H       1  UNL1        0.2104
@<TRIPOS>BOND
     1     1     7    1
     2     1     8    2
     3     1     9    2
     4     1    28    1
     5     2    28    1
     6     3    28    1
     7     4    28    1
     8     5    14    1
     9     5    22    1
    10     6    20    1
    11     6    46    1
    12     7    26    1
    13    10    13    1
    14    10    18    1
    15    10    25    1
    16    11    12    1
    17    11    14    1
    18    11    15    1
    19    11    16    1
    20    12    13    1
    21    12    21    1
    22    12    29    1
    23    13    17    1
    24    13    30    1
    25    14    20    1
    26    14    31    1
    27    15    18    1
    28    15    32    1
    29    15    33    1
    30    16    19   ar
    31    16    22   ar
    32    17    19    1
    33    17    34    1
    34    17    35    1
    35    18    36    1
    36    18    37    1
    37    19    24   ar
    38    20    23    1
    39    20    38    1
    40    21    23    2
    41    21    39    1
    42    22    26   ar
    43    23    40    1
    44    24    27   ar
    45    24    41    1
    46    25    42    1
    47    25    43    1
    48    25    44    1
    49    26    27   ar
    50    27    45    1
@<TRIPOS>MOLECULE
23450082
 44 48 0 0 0
SMALL
GASTEIGER

@<TRIPOS>ATOM
      1 S          -4.1797   -0.2850    0.0765 S.O2    1  UNL1        0.2514
      2 O          -0.9977    0.8701   -1.2998 O.3     1  UNL1       -0.4810
      3 O          -0.2500    3.9096   -0.0891 O.3     1  UNL1       -0.3841
      4 O          -3.0699   -1.1270   -0.8026 O.3     1  UNL1       -0.3213
      5 O          -5.5722   -0.5013   -0.7473 O.3     1  UNL1       -0.2222
      6 O          -4.3270   -0.9161    1.3752 O.2     1  UNL1       -0.1077
      7 O          -3.8396    1.1234   -0.0098 O.2     1  UNL1       -0.1077
      8 N           3.8884   -0.6778   -0.4464 N.3     1  UNL1       -0.3015
      9 C           1.3123    0.6520   -0.6268 C.3     1  UNL1        0.0480
     10 C           2.3608    1.0183    0.4295 C.3     1  UNL1        0.0064
     11 C           3.1312   -0.2978    0.7717 C.3     1  UNL1        0.0213
     12 C           0.1849    1.6661   -0.9046 C.3     1  UNL1        0.1399
     13 C           2.0475    0.1912   -1.9039 C.3     1  UNL1       -0.0263
     14 C           0.4471   -0.4545   -0.1311 C.ar    1  UNL1        0.0117
     15 C           2.1931   -1.4138    1.3507 C.3     1  UNL1       -0.0110
     16 C           3.0519   -0.9413   -1.6223 C.3     1  UNL1       -0.0001
     17 C           0.8231   -1.4653    0.7312 C.ar    1  UNL1       -0.0383
     18 C          -0.2242    2.5381    0.3141 C.3     1  UNL1        0.1110
     19 C           1.7759    1.7336    1.6138 C.2     1  UNL1       -0.0799
     20 C          -0.8383   -0.3073   -0.6087 C.ar    1  UNL1        0.1695
     21 C           0.6304    2.4243    1.5449 C.2     1  UNL1       -0.0559
     22 C          -0.1455   -2.4205    1.0409 C.ar    1  UNL1       -0.0545
     23 C           4.8474   -1.7545   -0.2231 C.3     1  UNL1       -0.0124
     24 C          -1.8055   -1.2456   -0.3299 C.ar    1  UNL1        0.2004
     25 C          -1.4443   -2.3188    0.4972 C.ar    1  UNL1       -0.0130
     26 H           3.0800    1.7312   -0.0030 H       1  UNL1        0.0368
     27 H           3.8730   -0.0607    1.5469 H       1  UNL1        0.0472
     28 H           0.4336    2.3050   -1.7610 H       1  UNL1        0.0772
     29 H           2.5888    1.0469   -2.3294 H       1  UNL1        0.0287
     30 H           1.3433   -0.1449   -2.6759 H       1  UNL1        0.0287
     31 H           2.0540   -1.2046    2.4200 H       1  UNL1        0.0329
     32 H           2.6632   -2.4002    1.2891 H       1  UNL1        0.0329
     33 H           2.5158   -1.8923   -1.5140 H       1  UNL1        0.0427
     34 H           3.6899   -1.0489   -2.5085 H       1  UNL1        0.0427
     35 H          -1.2527    2.2941    0.6065 H       1  UNL1        0.0675
     36 H           2.3384    1.7357    2.5430 H       1  UNL1        0.0573
     37 H           0.2864    2.9450    2.4351 H       1  UNL1        0.0596
     38 H           0.0867   -3.2400    1.7157 H       1  UNL1        0.0622
     39 H           5.4868   -1.5361    0.6392 H       1  UNL1        0.0391
     40 H           5.5146   -1.8509   -1.0870 H       1  UNL1        0.0391
     41 H           4.3675   -2.7252   -0.0628 H       1  UNL1        0.0391
     42 H          -2.1817   -3.0765    0.7531 H       1  UNL1        0.0656
     43 H          -0.5747    4.4364    0.6614 H       1  UNL1        0.2104
     44 H          -6.3639   -0.0598   -0.3596 H       1  UNL1        0.2479
@<TRIPOS>BOND
     1     1     4    1
     2     1     5    1
     3     1     6    2
     4     1     7    2
     5     2    12    1
     6     2    20    1
     7     3    18    1
     8     3    43    1
     9     4    24    1
    10     5    44    1
    11     8    11    1
    12     8    16    1
    13     8    23    1
    14     9    10    1
    15     9    12    1
    16     9    13    1
    17     9    14    1
    18    10    11    1
    19    10    19    1
    20    10    26    1
    21    11    15    1
    22    11    27    1
    23    12    18    1
    24    12    28    1
    25    13    16    1
    26    13    29    1
    27    13    30    1
    28    14    17   ar
    29    14    20   ar
    30    15    17    1
    31    15    31    1
    32    15    32    1
    33    16    33    1
    34    16    34    1
    35    17    22   ar
    36    18    21    1
    37    18    35    1
    38    19    21    2
    39    19    36    1
    40    20    24   ar
    41    21    37    1
    42    22    25   ar
    43    22    38    1
    44    23    39    1
    45    23    40    1
    46    23    41    1
    47    24    25   ar
    48    25    42    1
@<TRIPOS>MOLECULE
118701623
 41 45 0 0 0
SMALL
GASTEIGER

@<TRIPOS>ATOM
      1 O          -2.0729   -0.5898    1.2626 O.3     1  UNL1       -0.4811
      2 O           3.7939   -0.8471    0.6293 O.co2   1  UNL1       -0.7753
      3 O          -2.8092   -2.5995   -0.2414 O.3     1  UNL1       -0.3841
      4 O          -3.8798    1.6182    0.7151 O.3     1  UNL1       -0.5033
      5 N           3.0573    0.2833    0.3195 N.3     1  UNL1        0.2178
      6 C           0.2702   -0.6718    0.6091 C.3     1  UNL1        0.0553
      7 C           1.1866   -1.1941   -0.5066 C.3     1  UNL1        0.0338
      8 C           2.1387   -0.0154   -0.8899 C.3     1  UNL1       -0.0105
      9 C          -0.9717   -1.5203    0.9721 C.3     1  UNL1        0.1402
     10 C           1.1126   -0.3010    1.8482 C.3     1  UNL1        0.0014
     11 C          -0.4572    0.5293    0.1035 C.ar    1  UNL1        0.0120
     12 C           2.2422    0.6836    1.5326 C.3     1  UNL1       -0.0317
     13 C           1.3666    1.2291   -1.4379 C.3     1  UNL1        0.0164
     14 C           0.0291    1.4666   -0.7892 C.ar    1  UNL1       -0.0345
     15 C          -1.3913   -2.5501   -0.1106 C.3     1  UNL1        0.1110
     16 C           0.4018   -1.7610   -1.6605 C.2     1  UNL1       -0.0761
     17 C          -1.7556    0.5433    0.5621 C.ar    1  UNL1        0.1663
     18 C          -0.7813   -2.3633   -1.4720 C.2     1  UNL1       -0.0558
     19 C           4.0605    1.3595    0.0079 C.3     1  UNL1       -0.0436
     20 C          -0.8169    2.5258   -1.1230 C.ar    1  UNL1       -0.0544
     21 C          -2.6053    1.5827    0.2548 C.ar    1  UNL1        0.1588
     22 C          -2.1182    2.5918   -0.5858 C.ar    1  UNL1       -0.0162
     23 H           1.7873   -2.0287   -0.1204 H       1  UNL1        0.0408
     24 H           2.8445   -0.3510   -1.6622 H       1  UNL1        0.0859
     25 H          -0.7989   -2.0737    1.9043 H       1  UNL1        0.0772
     26 H           1.5494   -1.2191    2.2625 H       1  UNL1        0.0327
     27 H           0.4865    0.1284    2.6407 H       1  UNL1        0.0327
     28 H           1.8550    1.6892    1.3393 H       1  UNL1        0.0814
     29 H           2.9459    0.7435    2.3712 H       1  UNL1        0.0814
     30 H           1.1722    1.0482   -2.5036 H       1  UNL1        0.0368
     31 H           1.9617    2.1430   -1.3818 H       1  UNL1        0.0368
     32 H          -1.0757   -3.5432    0.2352 H       1  UNL1        0.0675
     33 H           0.8286   -1.7191   -2.6579 H       1  UNL1        0.0575
     34 H          -1.2861   -2.7999   -2.3295 H       1  UNL1        0.0596
     35 H           4.5544    1.0931   -0.9300 H       1  UNL1        0.0777
     36 H           3.5526    2.3221   -0.0604 H       1  UNL1        0.0777
     37 H           4.7844    1.3785    0.8285 H       1  UNL1        0.0777
     38 H          -0.4885    3.2925   -1.8197 H       1  UNL1        0.0622
     39 H          -2.7573    3.4259   -0.8669 H       1  UNL1        0.0655
     40 H          -3.0304   -3.3284   -0.8461 H       1  UNL1        0.2104
     41 H          -4.3124    2.4224    0.3801 H       1  UNL1        0.2923
@<TRIPOS>UNITY_ATOM_ATTR
2 1
charge -1
5 1
charge 1
@<TRIPOS>BOND
     1     1     9    1
     2     1    17    1
     3     2     5    1
     4     3    15    1
     5     3    40    1
     6     4    21    1
     7     4    41    1
     8     5     8    1
     9     5    12    1
    10     5    19    1
    11     6     7    1
    12     6     9    1
    13     6    10    1
    14     6    11    1
    15     7     8    1
    16     7    16    1
    17     7    23    1
    18     8    13    1
    19     8    24    1
    20     9    15    1
    21     9    25    1
    22    10    12    1
    23    10    26    1
    24    10    27    1
    25    11    14   ar
    26    11    17   ar
    27    12    28    1
    28    12    29    1
    29    13    14    1
    30    13    30    1
    31    13    31    1
    32    14    20   ar
    33    15    18    1
    34    15    32    1
    35    16    18    2
    36    16    33    1
    37    17    21   ar
    38    18    34    1
    39    19    35    1
    40    19    36    1
    41    19    37    1
    42    20    22   ar
    43    20    38    1
    44    21    22   ar
    45    22    39    1
@<TRIPOS>MOLECULE
129677303
 45 49 0 0 0
SMALL
GASTEIGER

@<TRIPOS>ATOM
      1 O          -1.1112   -1.4729   -1.1845 O.3     1  UNL1       -0.4803
      2 O          -3.0177   -1.0693    0.5445 O.3     1  UNL1       -0.3736
      3 O          -0.2103   -4.1893   -0.6618 O.3     1  UNL1       -0.5033
      4 O          -4.5247    0.8202   -0.2081 O.2     1  UNL1       -0.2942
      5 N           2.4049    2.3268   -0.4539 N.3     1  UNL1       -0.3015
      6 C           0.1217    0.5383   -0.6004 C.3     1  UNL1        0.0487
      7 C           0.2595    1.6177    0.4827 C.3     1  UNL1        0.0064
      8 C          -1.2858   -0.0438   -0.8708 C.3     1  UNL1        0.1496
      9 C           1.7877    1.7711    0.7745 C.3     1  UNL1        0.0213
     10 C           0.8275    1.0213   -1.8844 C.3     1  UNL1       -0.0263
     11 C           0.7601   -0.7204   -0.1161 C.ar    1  UNL1        0.0116
     12 C          -2.2931    0.1312    0.3022 C.3     1  UNL1        0.1789
     13 C           2.4378    0.4455    1.3023 C.3     1  UNL1       -0.0110
     14 C           2.2794    1.4616   -1.6312 C.3     1  UNL1       -0.0001
     15 C           1.8641   -0.8138    0.7107 C.ar    1  UNL1       -0.0383
     16 C          -0.5796    1.3148    1.6948 C.2     1  UNL1       -0.0792
     17 C           0.0444   -1.8206   -0.5347 C.ar    1  UNL1        0.1664
     18 C          -1.7313    0.6341    1.6026 C.2     1  UNL1       -0.0456
     19 C           3.7821    2.7700   -0.2630 C.3     1  UNL1       -0.0124
     20 C           2.3115   -2.0969    1.0285 C.ar    1  UNL1       -0.0546
     21 C          -3.3453    1.1401   -0.0683 C.2     1  UNL1        0.1691
     22 C           0.4731   -3.0962   -0.2431 C.ar    1  UNL1        0.1588
     23 C           1.6294   -3.2291    0.5372 C.ar    1  UNL1       -0.0162
     24 C          -2.8842    2.5597   -0.2599 C.3     1  UNL1       -0.0027
     25 H          -0.0963    2.5851    0.1023 H       1  UNL1        0.0368
     26 H          -1.7038    0.3987   -1.7843 H       1  UNL1        0.0779
     27 H           1.9040    2.5288    1.5619 H       1  UNL1        0.0472
     28 H           0.2683    1.8732   -2.2945 H       1  UNL1        0.0287
     29 H           0.8239    0.2445   -2.6599 H       1  UNL1        0.0287
     30 H           2.2587    0.4016    2.3852 H       1  UNL1        0.0329
     31 H           3.5242    0.4520    1.1711 H       1  UNL1        0.0329
     32 H           2.9245    0.5790   -1.5392 H       1  UNL1        0.0427
     33 H           2.6242    2.0015   -2.5221 H       1  UNL1        0.0427
     34 H          -0.2631    1.6984    2.6600 H       1  UNL1        0.0574
     35 H          -2.3121    0.4750    2.5083 H       1  UNL1        0.0603
     36 H           3.1743   -2.2336    1.6749 H       1  UNL1        0.0622
     37 H           3.8615    3.4374    0.6021 H       1  UNL1        0.0391
     38 H           4.1163    3.3483   -1.1318 H       1  UNL1        0.0391
     39 H           4.4820    1.9397   -0.1263 H       1  UNL1        0.0391
     40 H          -3.3208   -1.4144   -0.3130 H       1  UNL1        0.2113
     41 H           1.9988   -4.2168    0.8039 H       1  UNL1        0.0655
     42 H          -2.0899    2.6196   -1.0052 H       1  UNL1        0.0307
     43 H          -2.5828    3.0170    0.6838 H       1  UNL1        0.0307
     44 H          -3.7257    3.1447   -0.6474 H       1  UNL1        0.0307
     45 H           0.2489   -4.9867   -0.3465 H       1  UNL1        0.2923
@<TRIPOS>BOND
     1     1     8    1
     2     1    17    1
     3     2    12    1
     4     2    40    1
     5     3    22    1
     6     3    45    1
     7     4    21    2
     8     5     9    1
     9     5    14    1
    10     5    19    1
    11     6     7    1
    12     6     8    1
    13     6    10    1
    14     6    11    1
    15     7     9    1
    16     7    16    1
    17     7    25    1
    18     8    12    1
    19     8    26    1
    20     9    13    1
    21     9    27    1
    22    10    14    1
    23    10    28    1
    24    10    29    1
    25    11    15   ar
    26    11    17   ar
    27    12    18    1
    28    12    21    1
    29    13    15    1
    30    13    30    1
    31    13    31    1
    32    14    32    1
    33    14    33    1
    34    15    20   ar
    35    16    18    2
    36    16    34    1
    37    17    22   ar
    38    18    35    1
    39    19    37    1
    40    19    38    1
    41    19    39    1
    42    20    23   ar
    43    20    36    1
    44    21    24    1
    45    22    23   ar
    46    23    41    1
    47    24    42    1
    48    24    43    1
    49    24    44    1
@<TRIPOS>MOLECULE
129711592
 47 51 0 0 0
SMALL
GASTEIGER

@<TRIPOS>ATOM
      1 O           1.1738    1.0496    1.2132 O.3     1  UNL1       -0.4807
      2 O           1.4616    3.0442   -0.4011 O.3     1  UNL1       -0.3811
      3 O           3.3968   -0.7532    0.8234 O.3     1  UNL1       -0.3192
      4 O           5.3151    0.3299    0.2044 O.2     1  UNL1       -0.1051
      5 N          -3.6332   -0.8928    0.4133 N.3     1  UNL1       -0.3015
      6 N           4.0733    0.0151   -0.1762 N.2     1  UNL1        0.1612
      7 C          -1.1391    0.5812    0.6114 C.3     1  UNL1        0.0483
      8 C          -2.1410    0.7983   -0.5319 C.3     1  UNL1        0.0064
      9 C          -0.1076    1.7026    0.8926 C.3     1  UNL1        0.1424
     10 C          -2.8341   -0.5780   -0.7954 C.3     1  UNL1        0.0213
     11 C          -1.9003    0.1436    1.8791 C.3     1  UNL1       -0.0263
     12 C          -0.1769   -0.4826    0.1973 C.ar    1  UNL1        0.0117
     13 C           0.0701    2.7337   -0.2693 C.3     1  UNL1        0.1188
     14 C          -1.8211   -1.6938   -1.2255 C.3     1  UNL1       -0.0110
     15 C          -2.8320   -1.0539    1.6306 C.3     1  UNL1       -0.0001
     16 C          -0.4591   -1.5810   -0.5950 C.ar    1  UNL1       -0.0381
     17 C          -1.4757    1.4068   -1.7383 C.2     1  UNL1       -0.0796
     18 C           1.0971   -0.1816    0.6215 C.ar    1  UNL1        0.1702
     19 C          -0.4576    2.2707   -1.6103 C.2     1  UNL1       -0.0532
     20 C          -0.6473    4.0453    0.0921 C.3     1  UNL1       -0.0289
     21 C           0.5890   -2.4657   -0.8545 C.ar    1  UNL1       -0.0515
     22 C          -4.5514   -2.0117    0.2276 C.3     1  UNL1       -0.0124
     23 C           2.1456   -1.0433    0.3852 C.ar    1  UNL1        0.2063
     24 C           1.8784   -2.2061   -0.3486 C.ar    1  UNL1       -0.0015
     25 C           2.9753   -3.1771   -0.6457 C.3     1  UNL1       -0.0360
     26 H          -2.9139    1.5166   -0.2193 H       1  UNL1        0.0368
     27 H          -0.3844    2.2430    1.8071 H       1  UNL1        0.0774
     28 H          -3.5440   -0.4418   -1.6231 H       1  UNL1        0.0472
     29 H          -2.5040    0.9892    2.2358 H       1  UNL1        0.0287
     30 H          -1.2079   -0.1101    2.6923 H       1  UNL1        0.0287
     31 H          -1.6802   -1.6056   -2.3113 H       1  UNL1        0.0329
     32 H          -2.2260   -2.6951   -1.0493 H       1  UNL1        0.0329
     33 H          -2.2457   -1.9805    1.5951 H       1  UNL1        0.0427
     34 H          -3.4967   -1.1450    2.4989 H       1  UNL1        0.0427
     35 H          -1.8561    1.1694   -2.7269 H       1  UNL1        0.0573
     36 H          -0.0367    2.7146   -2.5089 H       1  UNL1        0.0598
     37 H          -0.2154    4.4857    0.9986 H       1  UNL1        0.0262
     38 H          -1.7193    3.8937    0.2588 H       1  UNL1        0.0262
     39 H          -0.5250    4.7965   -0.6979 H       1  UNL1        0.0262
     40 H           0.4099   -3.3423   -1.4725 H       1  UNL1        0.0624
     41 H          -5.1639   -1.8696   -0.6694 H       1  UNL1        0.0391
     42 H          -5.2479   -2.0723    1.0716 H       1  UNL1        0.0391
     43 H          -4.0390   -2.9757    0.1488 H       1  UNL1        0.0391
     44 H           1.5609    3.7247   -1.0889 H       1  UNL1        0.2107
     45 H           3.5917   -2.8110   -1.4728 H       1  UNL1        0.0279
     46 H           3.6096   -3.3345    0.2331 H       1  UNL1        0.0279
     47 H           2.5760   -4.1581   -0.9255 H       1  UNL1        0.0279
@<TRIPOS>BOND
     1     1     9    1
     2     1    18    1
     3     2    13    1
     4     2    44    1
     5     3     6    1
     6     3    23    1
     7     4     6    2
     8     5    10    1
     9     5    15    1
    10     5    22    1
    11     7     8    1
    12     7     9    1
    13     7    11    1
    14     7    12    1
    15     8    10    1
    16     8    17    1
    17     8    26    1
    18     9    13    1
    19     9    27    1
    20    10    14    1
    21    10    28    1
    22    11    15    1
    23    11    29    1
    24    11    30    1
    25    12    16   ar
    26    12    18   ar
    27    13    19    1
    28    13    20    1
    29    14    16    1
    30    14    31    1
    31    14    32    1
    32    15    33    1
    33    15    34    1
    34    16    21   ar
    35    17    19    2
    36    17    35    1
    37    18    23   ar
    38    19    36    1
    39    20    37    1
    40    20    38    1
    41    20    39    1
    42    21    24   ar
    43    21    40    1
    44    22    41    1
    45    22    42    1
    46    22    43    1
    47    23    24   ar
    48    24    25    1
    49    25    45    1
    50    25    46    1
    51    25    47    1
@<TRIPOS>MOLECULE
129780168
 55 60 0 0 0
SMALL
GASTEIGER

@<TRIPOS>ATOM
      1 BR         -7.9211    0.9055   -0.7460 Br      1  UNL1       -0.0503
      2 O           0.5365   -1.6838    1.1341 O.2     1  UNL1       -0.4861
      3 O           1.3673   -3.8958   -0.0227 O.3     1  UNL1       -0.3841
      4 O          -1.4977   -1.0867   -1.0836 O.3     1  UNL1       -0.3802
      5 N           4.3450    1.8791    0.3671 N.3     1  UNL1       -0.3015
      6 C           2.5346   -0.3758    0.6614 C.3     1  UNL1        0.0476
      7 C           3.6424   -0.3353   -0.4067 C.3     1  UNL1        0.0063
      8 C           1.9956   -1.7818    1.0392 C.3     1  UNL1        0.1394
      9 C           3.8217    1.1579   -0.8173 C.3     1  UNL1        0.0213
     10 C           1.2860    0.2131    0.1041 C.2     1  UNL1        0.0063
     11 C           3.0078    0.4255    1.8912 C.3     1  UNL1       -0.0263
     12 C           2.5197    1.7573   -1.4395 C.3     1  UNL1       -0.0114
     13 C           1.2231    1.3111   -0.8127 C.2     1  UNL1       -0.0426
     14 C           0.2379   -0.5302    0.4278 C.2     1  UNL1        0.1343
     15 C           3.4522    1.8520    1.5304 C.3     1  UNL1       -0.0001
     16 C           2.3910   -2.9086    0.0534 C.3     1  UNL1        0.1110
     17 C           3.3447   -1.2715   -1.5510 C.2     1  UNL1       -0.0799
     18 C          -1.1608   -0.2114   -0.0005 C.3     1  UNL1        0.1302
     19 C           2.7468   -2.4518   -1.3329 C.2     1  UNL1       -0.0559
     20 C          -1.2675    1.2551   -0.5310 C.3     1  UNL1        0.0022
     21 C           0.0150    1.8191   -1.1153 C.2     1  UNL1       -0.0772
     22 C           4.7901    3.2367    0.0708 C.3     1  UNL1       -0.0124
     23 C          -2.1814   -0.4363    1.1175 C.3     1  UNL1        0.0087
     24 C          -3.5764   -0.1099    0.6640 C.ar    1  UNL1       -0.0441
     25 C          -4.0757    1.1833    0.8192 C.ar    1  UNL1       -0.0574
     26 C          -4.3721   -1.1003    0.0883 C.ar    1  UNL1       -0.0574
     27 C          -5.3708    1.4860    0.3990 C.ar    1  UNL1       -0.0475
     28 C          -5.6673   -0.7978   -0.3319 C.ar    1  UNL1       -0.0475
     29 C          -6.1666    0.4954   -0.1765 C.ar    1  UNL1        0.0179
     30 H           4.5916   -0.6849    0.0278 H       1  UNL1        0.0368
     31 H           2.3325   -2.0774    2.0410 H       1  UNL1        0.0771
     32 H           4.6024    1.1966   -1.5898 H       1  UNL1        0.0472
     33 H           3.8532   -0.1014    2.3544 H       1  UNL1        0.0287
     34 H           2.2211    0.4796    2.6550 H       1  UNL1        0.0287
     35 H           2.4929    1.4400   -2.4919 H       1  UNL1        0.0329
     36 H           2.5654    2.8513   -1.4678 H       1  UNL1        0.0329
     37 H           3.9726    2.2696    2.4015 H       1  UNL1        0.0427
     38 H           2.5727    2.4865    1.3659 H       1  UNL1        0.0427
     39 H           3.2814   -3.4100    0.4548 H       1  UNL1        0.0675
     40 H           3.6586   -1.0034   -2.5548 H       1  UNL1        0.0573
     41 H           2.5888   -3.1269   -2.1687 H       1  UNL1        0.0596
     42 H          -1.5243    1.9478    0.2781 H       1  UNL1        0.0340
     43 H          -2.0387    1.3211   -1.3085 H       1  UNL1        0.0340
     44 H          -0.0708    2.6493   -1.8104 H       1  UNL1        0.0576
     45 H           5.4761    3.2456   -0.7832 H       1  UNL1        0.0391
     46 H           5.3484    3.6449    0.9209 H       1  UNL1        0.0391
     47 H           3.9612    3.9193   -0.1421 H       1  UNL1        0.0391
     48 H          -1.9308    0.1626    2.0035 H       1  UNL1        0.0345
     49 H          -2.1635   -1.4836    1.4497 H       1  UNL1        0.0345
     50 H           1.6949   -4.6261   -0.5752 H       1  UNL1        0.2104
     51 H          -0.8817   -0.9149   -1.8165 H       1  UNL1        0.2108
     52 H          -3.4852    1.9626    1.2919 H       1  UNL1        0.0621
     53 H          -3.9969   -2.1125   -0.0371 H       1  UNL1        0.0621
     54 H          -5.7471    2.4969    0.5331 H       1  UNL1        0.0629
     55 H          -6.2744   -1.5811   -0.7782 H       1  UNL1        0.0629
@<TRIPOS>BOND
     1     1    29    1
     2     2     8    1
     3     2    14    1
     4     3    16    1
     5     3    50    1
     6     4    18    1
     7     4    51    1
     8     5     9    1
     9     5    15    1
    10     5    22    1
    11     6     7    1
    12     6     8    1
    13     6    10    1
    14     6    11    1
    15     7     9    1
    16     7    17    1
    17     7    30    1
    18     8    16    1
    19     8    31    1
    20     9    12    1
    21     9    32    1
    22    10    13    1
    23    10    14    2
    24    11    15    1
    25    11    33    1
    26    11    34    1
    27    12    13    1
    28    12    35    1
    29    12    36    1
    30    13    21    2
    31    14    18    1
    32    15    37    1
    33    15    38    1
    34    16    19    1
    35    16    39    1
    36    17    19    2
    37    17    40    1
    38    18    20    1
    39    18    23    1
    40    19    41    1
    41    20    21    1
    42    20    42    1
    43    20    43    1
    44    21    44    1
    45    22    45    1
    46    22    46    1
    47    22    47    1
    48    23    24    1
    49    23    48    1
    50    23    49    1
    51    24    25   ar
    52    24    26   ar
    53    25    27   ar
    54    25    52    1
    55    26    28   ar
    56    26    53    1
    57    27    29   ar
    58    27    54    1
    59    28    29   ar
    60    28    55    1
@<TRIPOS>MOLECULE
162640439
 60 65 0 0 0
SMALL
GASTEIGER

@<TRIPOS>ATOM
      1 O          -0.6120   -1.2161    0.7711 O.3     1  UNL1       -0.4811
      2 O           1.1641   -0.0795   -0.7797 O.3     1  UNL1       -0.3377
      3 O          -1.1229   -3.8872   -0.2518 O.3     1  UNL1       -0.5033
      4 O           3.2623    0.9121   -0.5399 O.3     1  UNL1       -0.3315
      5 O           2.0687   -2.3092    0.7013 O.3     1  UNL1       -0.3841
      6 O           4.9849   -2.6688    0.5012 O.3     1  UNL1       -0.3864
      7 O           6.3325   -0.1712    1.1272 O.3     1  UNL1       -0.3860
      8 O           6.3971    2.3387    0.1417 O.3     1  UNL1       -0.4788
      9 O           4.8827    2.6140   -1.5394 O.2     1  UNL1       -0.2480
     10 N          -4.7114    2.0413    0.9972 N.3     1  UNL1       -0.3015
     11 C          -2.1903    0.6349    0.6923 C.3     1  UNL1        0.0480
     12 C          -2.5659    1.8545   -0.1624 C.3     1  UNL1        0.0064
     13 C          -0.6952    0.2520    0.7839 C.3     1  UNL1        0.1402
     14 C          -4.1182    1.8183   -0.3438 C.3     1  UNL1        0.0213
     15 C          -2.8628    0.7549    2.0744 C.3     1  UNL1       -0.0263
     16 C          -2.6670   -0.5969   -0.0039 C.ar    1  UNL1        0.0116
     17 C          -4.6118    0.5239   -1.0773 C.3     1  UNL1       -0.0110
     18 C          -4.3774    1.0029    1.9771 C.3     1  UNL1       -0.0001
     19 C           0.1958    0.8638   -0.3296 C.3     1  UNL1        0.1175
     20 C          -3.8075   -0.7123   -0.7775 C.ar    1  UNL1       -0.0383
     21 C          -1.7841    1.8954   -1.4499 C.2     1  UNL1       -0.0799
     22 C          -1.7547   -1.6189    0.1333 C.ar    1  UNL1        0.1663
     23 C          -0.5299    1.4260   -1.5205 C.2     1  UNL1       -0.0556
     24 C          -6.1475    2.2977    0.9615 C.3     1  UNL1       -0.0124
     25 C          -4.0773   -1.9656   -1.3297 C.ar    1  UNL1       -0.0546
     26 C          -2.0035   -2.8667   -0.3942 C.ar    1  UNL1        0.1588
     27 C          -3.1890   -3.0396   -1.1204 C.ar    1  UNL1       -0.0162
     28 C           2.3482   -0.0302    0.0153 C.3     1  UNL1        0.1893
     29 C           2.9668   -1.4284    0.0268 C.3     1  UNL1        0.1342
     30 C           4.3156   -1.4312    0.7467 C.3     1  UNL1        0.1145
     31 C           5.2158   -0.3002    0.2486 C.3     1  UNL1        0.1201
     32 C           4.4582    1.0215    0.2236 C.3     1  UNL1        0.1859
     33 C           5.2359    2.0703   -0.5035 C.2     1  UNL1        0.3367
     34 H          -2.3048    2.7789    0.3749 H       1  UNL1        0.0368
     35 H          -0.2795    0.5627    1.7511 H       1  UNL1        0.0772
     36 H          -4.4024    2.6775   -0.9670 H       1  UNL1        0.0472
     37 H          -2.6897   -0.1427    2.6821 H       1  UNL1        0.0287
     38 H          -2.4042    1.5924    2.6173 H       1  UNL1        0.0287
     39 H          -4.5265    0.7079   -2.1569 H       1  UNL1        0.0329
     40 H          -5.6710    0.3299   -0.8821 H       1  UNL1        0.0329
     41 H          -4.8938    0.0634    1.7445 H       1  UNL1        0.0427
     42 H          -4.7296    1.3082    2.9705 H       1  UNL1        0.0427
     43 H           0.7101    1.7401    0.0941 H       1  UNL1        0.0679
     44 H          -2.2331    2.3566   -2.3242 H       1  UNL1        0.0573
     45 H           0.0137    1.5204   -2.4565 H       1  UNL1        0.0596
     46 H          -6.3847    3.0927    0.2462 H       1  UNL1        0.0391
     47 H          -6.7331    1.4105    0.7011 H       1  UNL1        0.0391
     48 H          -6.4924    2.6492    1.9405 H       1  UNL1        0.0391
     49 H          -4.9596   -2.1160   -1.9460 H       1  UNL1        0.0622
     50 H          -3.4218   -4.0039   -1.5665 H       1  UNL1        0.0655
     51 H           2.0992    0.2618    1.0455 H       1  UNL1        0.0938
     52 H           3.0754   -1.8089   -0.9957 H       1  UNL1        0.0671
     53 H           4.1804   -1.3679    1.8329 H       1  UNL1        0.0648
     54 H          -1.4778   -4.6735   -0.7010 H       1  UNL1        0.2923
     55 H           5.6069   -0.5505   -0.7461 H       1  UNL1        0.0652
     56 H           4.2261    1.4017    1.2262 H       1  UNL1        0.0741
     57 H           1.9475   -1.9805    1.6084 H       1  UNL1        0.2101
     58 H           5.1010   -2.7646   -0.4595 H       1  UNL1        0.2100
     59 H           6.9562    0.4569    0.7260 H       1  UNL1        0.2100
     60 H           6.9242    3.0238   -0.3219 H       1  UNL1        0.2951
@<TRIPOS>BOND
     1     1    13    1
     2     1    22    1
     3     2    19    1
     4     2    28    1
     5     3    26    1
     6     3    54    1
     7     4    28    1
     8     4    32    1
     9     5    29    1
    10     5    57    1
    11     6    30    1
    12     6    58    1
    13     7    31    1
    14     7    59    1
    15     8    33    1
    16     8    60    1
    17     9    33    2
    18    10    14    1
    19    10    18    1
    20    10    24    1
    21    11    12    1
    22    11    13    1
    23    11    15    1
    24    11    16    1
    25    12    14    1
    26    12    21    1
    27    12    34    1
    28    13    19    1
    29    13    35    1
    30    14    17    1
    31    14    36    1
    32    15    18    1
    33    15    37    1
    34    15    38    1
    35    16    20   ar
    36    16    22   ar
    37    17    20    1
    38    17    39    1
    39    17    40    1
    40    18    41    1
    41    18    42    1
    42    19    23    1
    43    19    43    1
    44    20    25   ar
    45    21    23    2
    46    21    44    1
    47    22    26   ar
    48    23    45    1
    49    24    46    1
    50    24    47    1
    51    24    48    1
    52    25    27   ar
    53    25    49    1
    54    26    27   ar
    55    27    50    1
    56    28    29    1
    57    28    51    1
    58    29    30    1
    59    29    52    1
    60    30    31    1
    61    30    53    1
    62    31    32    1
    63    31    55    1
    64    32    33    1
    65    32    56    1
@<TRIPOS>MOLECULE
526469
 45 49 0 0 0
SMALL
GASTEIGER

@<TRIPOS>ATOM
      1 O          -1.2275    0.8155   -1.3111 O.3     1  UNL1       -0.4810
      2 O          -0.4988    3.9003   -0.2080 O.3     1  UNL1       -0.3841
      3 O          -3.2763   -1.1831   -0.7303 O.3     1  UNL1       -0.4223
      4 O          -3.8279    0.1249    1.1310 O.2     1  UNL1       -0.2507
      5 N           3.6801   -0.6578   -0.4493 N.3     1  UNL1       -0.3015
      6 C           1.0901    0.6413   -0.6513 C.3     1  UNL1        0.0480
      7 C           2.1437    1.0521    0.3832 C.3     1  UNL1        0.0064
      8 C           2.9295   -0.2447    0.7620 C.3     1  UNL1        0.0213
      9 C          -0.0493    1.6352   -0.9527 C.3     1  UNL1        0.1399
     10 C           1.8189    0.1453   -1.9187 C.3     1  UNL1       -0.0263
     11 C           0.2396   -0.4562   -0.1118 C.ar    1  UNL1        0.0116
     12 C           2.0070   -1.3497    1.3857 C.3     1  UNL1       -0.0110
     13 C           2.8364   -0.9678   -1.6086 C.3     1  UNL1       -0.0001
     14 C           0.6324   -1.4344    0.7802 C.ar    1  UNL1       -0.0383
     15 C          -0.4565    2.5432    0.2401 C.3     1  UNL1        0.1110
     16 C           1.5620    1.8008    1.5483 C.2     1  UNL1       -0.0799
     17 C          -1.0511   -0.3368   -0.5829 C.ar    1  UNL1        0.1673
     18 C           0.4094    2.4781    1.4666 C.2     1  UNL1       -0.0559
     19 C           4.6512   -1.7176   -0.1989 C.3     1  UNL1       -0.0124
     20 C          -0.3244   -2.3877    1.1295 C.ar    1  UNL1       -0.0545
     21 C          -2.0069   -1.2743   -0.2649 C.ar    1  UNL1        0.1733
     22 C          -1.6286   -2.3162    0.5940 C.ar    1  UNL1       -0.0153
     23 C          -4.1390   -0.4255    0.0831 C.2     1  UNL1        0.3093
     24 C          -5.5139   -0.3848   -0.5152 C.3     1  UNL1        0.0336
     25 H           2.8524    1.7569   -0.0787 H       1  UNL1        0.0368
     26 H           3.6755    0.0248    1.5225 H       1  UNL1        0.0472
     27 H           0.1862    2.2476   -1.8318 H       1  UNL1        0.0772
     28 H           2.3485    0.9915   -2.3769 H       1  UNL1        0.0287
     29 H           1.1116   -0.2226   -2.6731 H       1  UNL1        0.0287
     30 H           1.8749   -1.1064    2.4486 H       1  UNL1        0.0329
     31 H           2.4860   -2.3332    1.3526 H       1  UNL1        0.0329
     32 H           2.3103   -1.9197   -1.4643 H       1  UNL1        0.0427
     33 H           3.4680   -1.0989   -2.4963 H       1  UNL1        0.0427
     34 H          -1.4810    2.2988    0.5481 H       1  UNL1        0.0675
     35 H           2.1321    1.8388    2.4720 H       1  UNL1        0.0573
     36 H           0.0678    3.0248    2.3420 H       1  UNL1        0.0596
     37 H           5.3122   -1.8363   -1.0649 H       1  UNL1        0.0391
     38 H           4.1820   -2.6869   -0.0026 H       1  UNL1        0.0391
     39 H           5.2956   -1.4650    0.6502 H       1  UNL1        0.0391
     40 H          -0.0788   -3.1820    1.8292 H       1  UNL1        0.0622
     41 H          -2.3571   -3.0709    0.8821 H       1  UNL1        0.0656
     42 H          -0.8228    4.4485    0.5273 H       1  UNL1        0.2104
     43 H          -5.4722    0.0798   -1.5033 H       1  UNL1        0.0342
     44 H          -6.1706    0.2117    0.1243 H       1  UNL1        0.0342
     45 H          -5.9168   -1.3983   -0.5823 H       1  UNL1        0.0342
@<TRIPOS>BOND
     1     1     9    1
     2     1    17    1
     3     2    15    1
     4     2    42    1
     5     3    21    1
     6     3    23    1
     7     4    23    2
     8     5     8    1
     9     5    13    1
    10     5    19    1
    11     6     7    1
    12     6     9    1
    13     6    10    1
    14     6    11    1
    15     7     8    1
    16     7    16    1
    17     7    25    1
    18     8    12    1
    19     8    26    1
    20     9    15    1
    21     9    27    1
    22    10    13    1
    23    10    28    1
    24    10    29    1
    25    11    14   ar
    26    11    17   ar
    27    12    14    1
    28    12    30    1
    29    12    31    1
    30    13    32    1
    31    13    33    1
    32    14    20   ar
    33    15    18    1
    34    15    34    1
    35    16    18    2
    36    16    35    1
    37    17    21   ar
    38    18    36    1
    39    19    37    1
    40    19    38    1
    41    19    39    1
    42    20    22   ar
    43    20    40    1
    44    21    22   ar
    45    22    41    1
    46    23    24    1
    47    24    43    1
    48    24    44    1
    49    24    45    1
@<TRIPOS>MOLECULE
569939
 41 45 0 0 0
SMALL
GASTEIGER

@<TRIPOS>ATOM
      1 O           1.5349   -1.7181    0.6048 O.3     1  UNL1       -0.4810
      2 O          -0.9706   -0.2482   -2.1855 O.3     1  UNL1       -0.3820
      3 O          -0.4838   -4.0450   -0.1920 O.3     1  UNL1       -0.3841
      4 O           4.3045   -0.6240    0.5061 O.3     1  UNL1       -0.5033
      5 N          -2.3301    1.6816    0.6776 N.3     1  UNL1       -0.2990
      6 C          -0.3750   -0.3771    0.1889 C.3     1  UNL1        0.0740
      7 C          -1.4493   -0.0658   -0.8431 C.3     1  UNL1        0.1131
      8 C          -1.7340    1.4600   -0.6559 C.3     1  UNL1        0.0474
      9 C           0.2237   -1.7589   -0.0357 C.3     1  UNL1        0.1423
     10 C          -0.8522   -0.0619    1.6438 C.3     1  UNL1       -0.0239
     11 C           0.8584    0.3758   -0.0499 C.ar    1  UNL1        0.0141
     12 C          -0.4017    2.3122   -0.9487 C.3     1  UNL1       -0.0086
     13 C          -1.4186    1.3597    1.7782 C.3     1  UNL1        0.0000
     14 C           0.9046    1.6662   -0.5272 C.ar    1  UNL1       -0.0381
     15 C          -0.8269   -2.7891    0.3874 C.3     1  UNL1        0.1111
     16 C          -2.5084   -1.1420   -0.6480 C.2     1  UNL1       -0.0518
     17 C           1.9421   -0.4277    0.2692 C.ar    1  UNL1        0.1664
     18 C          -2.2193   -2.3547   -0.1099 C.2     1  UNL1       -0.0535
     19 C          -2.8987    3.0165    0.8354 C.3     1  UNL1       -0.0124
     20 C           2.1804    2.2065   -0.6303 C.ar    1  UNL1       -0.0546
     21 C           3.2045    0.1006    0.1935 C.ar    1  UNL1        0.1588
     22 C           3.3152    1.4334   -0.2584 C.ar    1  UNL1       -0.0162
     23 H          -2.4722    1.7611   -1.4121 H       1  UNL1        0.0497
     24 H           0.4502   -1.9554   -1.0988 H       1  UNL1        0.0772
     25 H          -0.0377   -0.1869    2.3695 H       1  UNL1        0.0288
     26 H          -1.6372   -0.7570    1.9621 H       1  UNL1        0.0288
     27 H          -0.4739    3.3093   -0.5034 H       1  UNL1        0.0329
     28 H          -0.3482    2.4583   -2.0359 H       1  UNL1        0.0329
     29 H          -1.9558    1.4193    2.7332 H       1  UNL1        0.0427
     30 H          -0.5993    2.0862    1.8430 H       1  UNL1        0.0427
     31 H          -0.8323   -2.9250    1.4738 H       1  UNL1        0.0675
     32 H          -3.5183   -0.9340   -0.9884 H       1  UNL1        0.0599
     33 H          -3.0232   -3.0784   -0.0015 H       1  UNL1        0.0596
     34 H          -1.6717    0.0445   -2.7929 H       1  UNL1        0.2107
     35 H          -2.1394    3.8045    0.8564 H       1  UNL1        0.0391
     36 H          -3.4693    3.0764    1.7691 H       1  UNL1        0.0391
     37 H          -3.6046    3.2370    0.0272 H       1  UNL1        0.0391
     38 H           2.3233    3.2174   -1.0018 H       1  UNL1        0.0622
     39 H           4.2990    1.8911   -0.3489 H       1  UNL1        0.0655
     40 H          -1.1572   -4.6905    0.0830 H       1  UNL1        0.2104
     41 H           5.0924   -0.0683    0.3777 H       1  UNL1        0.2923
@<TRIPOS>BOND
     1     1     9    1
     2     1    17    1
     3     2     7    1
     4     2    34    1
     5     3    15    1
     6     3    40    1
     7     4    21    1
     8     4    41    1
     9     5     8    1
    10     5    13    1
    11     5    19    1
    12     6     7    1
    13     6     9    1
    14     6    10    1
    15     6    11    1
    16     7     8    1
    17     7    16    1
    18     8    12    1
    19     8    23    1
    20     9    15    1
    21     9    24    1
    22    10    13    1
    23    10    25    1
    24    10    26    1
    25    11    14   ar
    26    11    17   ar
    27    12    14    1
    28    12    27    1
    29    12    28    1
    30    13    29    1
    31    13    30    1
    32    14    20   ar
    33    15    18    1
    34    15    31    1
    35    16    18    2
    36    16    32    1
    37    17    21   ar
    38    18    33    1
    39    19    35    1
    40    19    36    1
    41    19    37    1
    42    20    22   ar
    43    20    38    1
    44    21    22   ar
    45    22    39    1
@<TRIPOS>MOLECULE
20837809
 50 54 0 0 0
SMALL
GASTEIGER

@<TRIPOS>ATOM
      1 O           1.2496    1.1957    0.8442 O.2     1  UNL1       -0.4856
      2 O           0.7652    3.7198    0.3227 O.3     1  UNL1       -0.3841
      3 O           2.6409    0.6966   -1.7494 O.3     1  UNL1       -0.3734
      4 O           4.4195   -0.1318   -0.0812 O.2     1  UNL1       -0.2939
      5 N          -3.4145   -1.2530    0.6939 N.3     1  UNL1       -0.3015
      6 C          -1.0684    0.4599    0.7698 C.3     1  UNL1        0.0476
      7 C          -2.3721    0.8697    0.0617 C.3     1  UNL1        0.0063
      8 C          -3.0229   -0.4386   -0.4810 C.3     1  UNL1        0.0213
      9 C          -0.1147    1.6159    1.1747 C.3     1  UNL1        0.1394
     10 C          -0.1828   -0.2512   -0.1935 C.2     1  UNL1        0.0068
     11 C          -1.4201   -0.4565    1.9597 C.3     1  UNL1       -0.0263
     12 C          -2.1079   -1.1670   -1.5169 C.3     1  UNL1       -0.0114
     13 C          -0.6260   -1.1225   -1.2391 C.2     1  UNL1       -0.0426
     14 C          -2.2906   -1.6535    1.5463 C.3     1  UNL1       -0.0001
     15 C           1.0673    0.1708   -0.0717 C.2     1  UNL1        0.1414
     16 C          -0.4358    2.9761    0.5088 C.3     1  UNL1        0.1110
     17 C          -2.1247    1.9306   -0.9816 C.2     1  UNL1       -0.0799
     18 C           2.1926   -0.3497   -0.9000 C.3     1  UNL1        0.1837
     19 C          -1.2107    2.8906   -0.7777 C.2     1  UNL1       -0.0559
     20 C           0.2997   -1.7695   -1.9693 C.2     1  UNL1       -0.0768
     21 C           1.7906   -1.5965   -1.7437 C.3     1  UNL1        0.0089
     22 C          -4.2581   -2.3943    0.3549 C.3     1  UNL1       -0.0124
     23 C           3.3256   -0.6833    0.0294 C.2     1  UNL1        0.1722
     24 C           3.0332   -1.7264    1.0920 C.3     1  UNL1        0.0064
     25 C           3.8652   -1.5318    2.3467 C.3     1  UNL1       -0.0585
     26 H          -3.0661    1.3188    0.7887 H       1  UNL1        0.0368
     27 H          -3.9487   -0.1561   -1.0015 H       1  UNL1        0.0472
     28 H          -0.1157    1.7656    2.2620 H       1  UNL1        0.0771
     29 H          -1.9632    0.1318    2.7120 H       1  UNL1        0.0287
     30 H          -0.5133   -0.8288    2.4539 H       1  UNL1        0.0287
     31 H          -2.2675   -0.6727   -2.4860 H       1  UNL1        0.0329
     32 H          -2.4288   -2.2038   -1.6644 H       1  UNL1        0.0329
     33 H          -1.6719   -2.4120    1.0514 H       1  UNL1        0.0427
     34 H          -2.6732   -2.1202    2.4627 H       1  UNL1        0.0427
     35 H          -1.0562    3.5546    1.2058 H       1  UNL1        0.0675
     36 H          -2.7233    1.9389   -1.8869 H       1  UNL1        0.0573
     37 H          -1.0837    3.6702   -1.5228 H       1  UNL1        0.0596
     38 H          -0.0082   -2.4260   -2.7784 H       1  UNL1        0.0576
     39 H           2.1560   -2.5302   -1.3026 H       1  UNL1        0.0344
     40 H           2.2602   -1.5256   -2.7335 H       1  UNL1        0.0344
     41 H          -5.1084   -2.0826   -0.2614 H       1  UNL1        0.0391
     42 H          -4.6804   -2.8349    1.2652 H       1  UNL1        0.0391
     43 H          -3.7149   -3.1827   -0.1756 H       1  UNL1        0.0391
     44 H           0.5249    4.5905   -0.0376 H       1  UNL1        0.2104
     45 H           3.3590    0.3500   -2.3061 H       1  UNL1        0.2113
     46 H           1.9790   -1.7165    1.3792 H       1  UNL1        0.0340
     47 H           3.2520   -2.7115    0.6667 H       1  UNL1        0.0340
     48 H           4.9351   -1.6083    2.1271 H       1  UNL1        0.0234
     49 H           3.6158   -2.2924    3.0930 H       1  UNL1        0.0234
     50 H           3.6833   -0.5452    2.7855 H       1  UNL1        0.0234
@<TRIPOS>BOND
     1     1     9    1
     2     1    15    1
     3     2    16    1
     4     2    44    1
     5     3    18    1
     6     3    45    1
     7     4    23    2
     8     5     8    1
     9     5    14    1
    10     5    22    1
    11     6     7    1
    12     6     9    1
    13     6    10    1
    14     6    11    1
    15     7     8    1
    16     7    17    1
    17     7    26    1
    18     8    12    1
    19     8    27    1
    20     9    16    1
    21     9    28    1
    22    10    13    1
    23    10    15    2
    24    11    14    1
    25    11    29    1
    26    11    30    1
    27    12    13    1
    28    12    31    1
    29    12    32    1
    30    13    20    2
    31    14    33    1
    32    14    34    1
    33    15    18    1
    34    16    19    1
    35    16    35    1
    36    17    19    2
    37    17    36    1
    38    18    21    1
    39    18    23    1
    40    19    37    1
    41    20    21    1
    42    20    38    1
    43    21    39    1
    44    21    40    1
    45    22    41    1
    46    22    42    1
    47    22    43    1
    48    23    24    1
    49    24    25    1
    50    24    46    1
    51    24    47    1
    52    25    48    1
    53    25    49    1
    54    25    50    1
@<TRIPOS>MOLECULE
22791130
 46 50 0 0 0
SMALL
GASTEIGER

@<TRIPOS>ATOM
      1 O          -0.7769   -1.1057    1.2074 O.3     1  UNL1       -0.4811
      2 O          -1.0388   -3.2221   -0.2999 O.3     1  UNL1       -0.3841
      3 O          -2.9708    0.7266    0.6978 O.3     1  UNL1       -0.4771
      4 O          -6.2600    0.7511   -0.7399 O.3     1  UNL1       -0.4783
      5 O          -5.2989   -0.6905    0.7386 O.2     1  UNL1       -0.2472
      6 N           4.0709    0.7328    0.4102 N.3     1  UNL1       -0.3015
      7 C           1.5524   -0.6940    0.6271 C.3     1  UNL1        0.0480
      8 C           2.5689   -0.9744   -0.4902 C.3     1  UNL1        0.0064
      9 C           3.2871    0.3797   -0.7981 C.3     1  UNL1        0.0213
     10 C           0.4982   -1.7841    0.9309 C.3     1  UNL1        0.1399
     11 C           2.2987   -0.2171    1.8888 C.3     1  UNL1       -0.0263
     12 C           0.6131    0.3658    0.1539 C.ar    1  UNL1        0.0116
     13 C           2.2981    1.4913   -1.2909 C.3     1  UNL1       -0.0110
     14 C           3.2531    0.9550    1.6068 C.3     1  UNL1       -0.0001
     15 C           0.9249    1.4258   -0.6783 C.ar    1  UNL1       -0.0383
     16 C           0.3312   -2.8448   -0.1885 C.3     1  UNL1        0.1110
     17 C           1.9171   -1.6259   -1.6830 C.2     1  UNL1       -0.0799
     18 C          -0.6724    0.1003    0.5686 C.ar    1  UNL1        0.1666
     19 C           0.8811   -2.4655   -1.5378 C.2     1  UNL1       -0.0559
     20 C          -0.1055    2.3140   -0.9909 C.ar    1  UNL1       -0.0546
     21 C           5.0081    1.8303    0.1942 C.3     1  UNL1       -0.0124
     22 C          -1.7038    0.9666    0.2800 C.ar    1  UNL1        0.1630
     23 C          -1.4067    2.0942   -0.4962 C.ar    1  UNL1       -0.0160
     24 C          -4.0344    1.1908   -0.1365 C.3     1  UNL1        0.1859
     25 C          -5.2346    0.2999    0.0258 C.2     1  UNL1        0.3427
     26 H           3.3249   -1.6904   -0.1336 H       1  UNL1        0.0368
     27 H           4.0084    0.1993   -1.6072 H       1  UNL1        0.0472
     28 H           0.7519   -2.3182    1.8557 H       1  UNL1        0.0772
     29 H           2.8830   -1.0563    2.2900 H       1  UNL1        0.0287
     30 H           1.5971    0.0803    2.6789 H       1  UNL1        0.0287
     31 H           2.1726    1.3592   -2.3742 H       1  UNL1        0.0329
     32 H           2.7158    2.4931   -1.1506 H       1  UNL1        0.0329
     33 H           2.6820    1.8879    1.5240 H       1  UNL1        0.0427
     34 H           3.9055    1.0715    2.4814 H       1  UNL1        0.0427
     35 H           0.8768   -3.7457    0.1215 H       1  UNL1        0.0675
     36 H           2.3241   -1.4424   -2.6725 H       1  UNL1        0.0573
     37 H           0.4710   -2.9499   -2.4194 H       1  UNL1        0.0596
     38 H           0.0830    3.1690   -1.6348 H       1  UNL1        0.0622
     39 H           5.6326    1.6432   -0.6861 H       1  UNL1        0.0391
     40 H           5.6919    1.9157    1.0463 H       1  UNL1        0.0391
     41 H           4.5111    2.7973    0.0680 H       1  UNL1        0.0391
     42 H          -2.1673    2.8277   -0.7513 H       1  UNL1        0.0655
     43 H          -1.1004   -3.9367   -0.9566 H       1  UNL1        0.2104
     44 H          -4.3063    2.2069    0.1676 H       1  UNL1        0.0815
     45 H          -3.7580    1.1515   -1.1974 H       1  UNL1        0.0815
     46 H          -7.0579    0.1871   -0.6525 H       1  UNL1        0.2952
@<TRIPOS>BOND
     1     1    10    1
     2     1    18    1
     3     2    16    1
     4     2    43    1
     5     3    22    1
     6     3    24    1
     7     4    25    1
     8     4    46    1
     9     5    25    2
    10     6     9    1
    11     6    14    1
    12     6    21    1
    13     7     8    1
    14     7    10    1
    15     7    11    1
    16     7    12    1
    17     8     9    1
    18     8    17    1
    19     8    26    1
    20     9    13    1
    21     9    27    1
    22    10    16    1
    23    10    28    1
    24    11    14    1
    25    11    29    1
    26    11    30    1
    27    12    15   ar
    28    12    18   ar
    29    13    15    1
    30    13    31    1
    31    13    32    1
    32    14    33    1
    33    14    34    1
    34    15    20   ar
    35    16    19    1
    36    16    35    1
    37    17    19    2
    38    17    36    1
    39    18    22   ar
    40    19    37    1
    41    20    23   ar
    42    20    38    1
    43    21    39    1
    44    21    40    1
    45    21    41    1
    46    22    23   ar
    47    23    42    1
    48    24    25    1
    49    24    44    1
    50    24    45    1
@<TRIPOS>MOLECULE
53921933
 46 50 0 0 0
SMALL
GASTEIGER

@<TRIPOS>ATOM
      1 S          -4.5326   -0.6724   -0.1233 S.O2    1  UNL1        0.1179
      2 O          -0.7134    1.4479   -1.0622 O.3     1  UNL1       -0.4810
      3 O          -0.2814    3.6907    0.2035 O.3     1  UNL1       -0.3841
      4 O          -3.1717    0.2445   -0.0923 O.3     1  UNL1       -0.3426
      5 O          -4.2886   -1.8758   -0.8931 O.2     1  UNL1       -0.1370
      6 O          -5.1234   -0.7074    1.1995 O.2     1  UNL1       -0.1370
      7 N           3.6590   -1.4150   -0.6094 N.3     1  UNL1       -0.3015
      8 C           1.5207    0.5457   -0.7060 C.3     1  UNL1        0.0480
      9 C           2.7186    0.6737    0.2475 C.3     1  UNL1        0.0064
     10 C           3.1491   -0.7797    0.6298 C.3     1  UNL1        0.0213
     11 C           0.7073    1.8244   -1.0148 C.3     1  UNL1        0.1399
     12 C           1.9588   -0.2052   -1.9789 C.3     1  UNL1       -0.0263
     13 C           0.4415   -0.2133   -0.0069 C.ar    1  UNL1        0.0117
     14 C           2.0131   -1.5757    1.3597 C.3     1  UNL1       -0.0110
     15 C           2.6548   -1.5412   -1.6704 C.3     1  UNL1       -0.0001
     16 C           0.6187   -1.2390    0.9042 C.ar    1  UNL1       -0.0383
     17 C           0.9397    2.9892   -0.0172 C.3     1  UNL1        0.1110
     18 C           2.4010    1.5647    1.4212 C.2     1  UNL1       -0.0799
     19 C          -0.7959    0.3134   -0.3010 C.ar    1  UNL1        0.1695
     20 C           1.5707    2.6107    1.2964 C.2     1  UNL1       -0.0559
     21 C          -0.5319   -1.8240    1.4357 C.ar    1  UNL1       -0.0545
     22 C           4.3462   -2.6803   -0.3729 C.3     1  UNL1       -0.0124
     23 C          -1.9457   -0.2524    0.2043 C.ar    1  UNL1        0.1981
     24 C          -1.8057   -1.3447    1.0701 C.ar    1  UNL1       -0.0131
     25 C          -5.5089    0.4211   -1.1233 C.3     1  UNL1        0.0920
     26 H           3.5596    1.1545   -0.2748 H       1  UNL1        0.0368
     27 H           3.9971   -0.7054    1.3247 H       1  UNL1        0.0472
     28 H           0.9444    2.1985   -2.0193 H       1  UNL1        0.0772
     29 H           2.6557    0.4316   -2.5406 H       1  UNL1        0.0287
     30 H           1.1060   -0.3957   -2.6432 H       1  UNL1        0.0287
     31 H           2.0716   -1.3227    2.4271 H       1  UNL1        0.0329
     32 H           2.1710   -2.6565    1.2919 H       1  UNL1        0.0329
     33 H           1.9056   -2.3002   -1.4133 H       1  UNL1        0.0427
     34 H           3.1369   -1.8869   -2.5935 H       1  UNL1        0.0427
     35 H           1.6260    3.7029   -0.4915 H       1  UNL1        0.0675
     36 H           2.8888    1.3776    2.3728 H       1  UNL1        0.0573
     37 H           1.4057    3.2550    2.1553 H       1  UNL1        0.0596
     38 H          -0.4533   -2.6324    2.1579 H       1  UNL1        0.0622
     39 H           5.1124   -2.5699    0.4022 H       1  UNL1        0.0391
     40 H           4.8689   -3.0012   -1.2812 H       1  UNL1        0.0391
     41 H           3.6671   -3.4861   -0.0773 H       1  UNL1        0.0391
     42 H          -2.6668   -1.8225    1.5284 H       1  UNL1        0.0656
     43 H          -0.0892    4.4548    0.7736 H       1  UNL1        0.2104
     44 H          -5.6086    1.3778   -0.6072 H       1  UNL1        0.0499
     45 H          -5.0170    0.5506   -2.0891 H       1  UNL1        0.0499
     46 H          -6.4924   -0.0325   -1.2628 H       1  UNL1        0.0499
@<TRIPOS>BOND
     1     1     4    1
     2     1     5    2
     3     1     6    2
     4     1    25    1
     5     2    11    1
     6     2    19    1
     7     3    17    1
     8     3    43    1
     9     4    23    1
    10     7    10    1
    11     7    15    1
    12     7    22    1
    13     8     9    1
    14     8    11    1
    15     8    12    1
    16     8    13    1
    17     9    10    1
    18     9    18    1
    19     9    26    1
    20    10    14    1
    21    10    27    1
    22    11    17    1
    23    11    28    1
    24    12    15    1
    25    12    29    1
    26    12    30    1
    27    13    16   ar
    28    13    19   ar
    29    14    16    1
    30    14    31    1
    31    14    32    1
    32    15    33    1
    33    15    34    1
    34    16    21   ar
    35    17    20    1
    36    17    35    1
    37    18    20    2
    38    18    36    1
    39    19    23   ar
    40    20    37    1
    41    21    24   ar
    42    21    38    1
    43    22    39    1
    44    22    40    1
    45    22    41    1
    46    23    24   ar
    47    24    42    1
    48    25    44    1
    49    25    45    1
    50    25    46    1
@<TRIPOS>MOLECULE
87576881
 40 43 0 0 0
SMALL
GASTEIGER

@<TRIPOS>ATOM
      1 O          -3.3448   -0.7535    0.4540 O.co2   1  UNL1       -0.7753
      2 N          -2.1196   -1.3490    0.2009 N.3     1  UNL1        0.2176
      3 C          -1.1408    0.8512   -0.5122 C.3     1  UNL1        0.0158
      4 C          -0.1232    0.8263    0.6659 C.3     1  UNL1        0.0267
      5 C          -1.4180   -0.5950   -0.9528 C.3     1  UNL1       -0.0139
      6 C          -0.8222    0.0946    1.8437 C.3     1  UNL1        0.0010
      7 C          -1.2928   -1.3157    1.4713 C.3     1  UNL1       -0.0315
      8 C          -0.1374   -1.2494   -1.4968 C.3     1  UNL1        0.0160
      9 C          -0.6779    1.7830   -1.6454 C.3     1  UNL1       -0.0406
     10 C           1.1481    0.0370    0.3007 C.ar    1  UNL1       -0.0334
     11 C           1.1145   -0.9510   -0.7068 C.ar    1  UNL1       -0.0380
     12 C           0.1950    2.2635    1.0565 C.2     1  UNL1       -0.0768
     13 C          -0.5528    3.2225   -1.1369 C.3     1  UNL1       -0.0343
     14 C          -2.4176   -2.7761   -0.1671 C.3     1  UNL1       -0.0436
     15 C          -0.0004    3.3204    0.2535 C.2     1  UNL1       -0.0871
     16 C           2.3508    0.2261    1.0091 C.ar    1  UNL1       -0.0575
     17 C           2.2787   -1.6751   -1.0161 C.ar    1  UNL1       -0.0581
     18 C           3.4972   -0.5069    0.6977 C.ar    1  UNL1       -0.0615
     19 C           3.4631   -1.4529   -0.3190 C.ar    1  UNL1       -0.0615
     20 H          -2.0864    1.2797   -0.1457 H       1  UNL1        0.0367
     21 H          -2.1750   -0.5986   -1.7488 H       1  UNL1        0.0856
     22 H          -1.6915    0.6796    2.1743 H       1  UNL1        0.0329
     23 H          -0.1549    0.0233    2.7127 H       1  UNL1        0.0329
     24 H          -0.4514   -2.0001    1.3255 H       1  UNL1        0.0814
     25 H          -1.9311   -1.7268    2.2625 H       1  UNL1        0.0814
     26 H           0.0313   -0.8744   -2.5153 H       1  UNL1        0.0368
     27 H          -0.2555   -2.3324   -1.5916 H       1  UNL1        0.0368
     28 H          -1.3901    1.7530   -2.4784 H       1  UNL1        0.0273
     29 H           0.2901    1.4676   -2.0512 H       1  UNL1        0.0273
     30 H           0.5950    2.4451    2.0517 H       1  UNL1        0.0578
     31 H          -1.5414    3.6973   -1.1442 H       1  UNL1        0.0307
     32 H           0.0803    3.7941   -1.8249 H       1  UNL1        0.0307
     33 H          -3.0685   -3.1857    0.6115 H       1  UNL1        0.0777
     34 H          -1.4845   -3.3399   -0.2082 H       1  UNL1        0.0777
     35 H          -2.9322   -2.7707   -1.1314 H       1  UNL1        0.0777
     36 H           0.2409    4.3131    0.6233 H       1  UNL1        0.0569
     37 H           2.4130    0.9437    1.8230 H       1  UNL1        0.0621
     38 H           2.2623   -2.4248   -1.8038 H       1  UNL1        0.0620
     39 H           4.4151   -0.3392    1.2537 H       1  UNL1        0.0618
     40 H           4.3543   -2.0227   -0.5641 H       1  UNL1        0.0618
@<TRIPOS>UNITY_ATOM_ATTR
1 1
charge -1
2 1
charge 1
@<TRIPOS>BOND
     1     1     2    1
     2     2     5    1
     3     2     7    1
     4     2    14    1
     5     3     4    1
     6     3     5    1
     7     3     9    1
     8     3    20    1
     9     4     6    1
    10     4    10    1
    11     4    12    1
    12     5     8    1
    13     5    21    1
    14     6     7    1
    15     6    22    1
    16     6    23    1
    17     7    24    1
    18     7    25    1
    19     8    11    1
    20     8    26    1
    21     8    27    1
    22     9    13    1
    23     9    28    1
    24     9    29    1
    25    10    11   ar
    26    10    16   ar
    27    11    17   ar
    28    12    15    2
    29    12    30    1
    30    13    15    1
    31    13    31    1
    32    13    32    1
    33    14    33    1
    34    14    34    1
    35    14    35    1
    36    15    36    1
    37    16    18   ar
    38    16    37    1
    39    17    19   ar
    40    17    38    1
    41    18    19   ar
    42    18    39    1
    43    19    40    1
@<TRIPOS>MOLECULE
91750949
 64 68 0 0 0
SMALL
GASTEIGER

@<TRIPOS>ATOM
      1 SI         -1.6054   -4.1754   -0.1124 Si      1  UNL1        0.0000
      2 SI         -4.0916    2.4525    0.1120 Si      1  UNL1        0.0000
      3 O          -0.6734   -0.3016    1.3323 O.3     1  UNL1        0.0000
      4 O          -1.0915   -2.6075    0.1802 O.3     1  UNL1        0.0000
      5 O          -2.6919    1.5964    0.4642 O.3     1  UNL1        0.0000
      6 N           4.3286    0.9745    0.3993 N.3     1  UNL1        0.0000
      7 C           1.6925   -0.1842    0.7659 C.3     1  UNL1        0.0000
      8 C           2.6999   -0.7269   -0.2593 C.3     1  UNL1        0.0000
      9 C           0.5428   -1.1190    1.2091 C.3     1  UNL1        0.0000
     10 C           3.5377    0.4943   -0.7597 C.3     1  UNL1        0.0000
     11 C           2.4554    0.4298    1.9563 C.3     1  UNL1        0.0000
     12 C           0.8566    0.8576    0.0984 C.ar    1  UNL1        0.0000
     13 C           2.6574    1.5884   -1.4561 C.3     1  UNL1        0.0000
     14 C           3.5126    1.4568    1.5180 C.3     1  UNL1        0.0000
     15 C           0.3040   -2.3313    0.2714 C.3     1  UNL1        0.0000
     16 C           1.2732    1.7374   -0.8844 C.ar    1  UNL1        0.0000
     17 C           2.0145   -1.5087   -1.3508 C.2     1  UNL1        0.0000
     18 C          -0.4542    0.7704    0.5102 C.ar    1  UNL1        0.0000
     19 C           0.9074   -2.2247   -1.1039 C.2     1  UNL1        0.0000
     20 C           0.3287    2.6438   -1.3693 C.ar    1  UNL1        0.0000
     21 C           5.3611    1.9402    0.0378 C.3     1  UNL1        0.0000
     22 C          -1.4018    1.6593    0.0525 C.ar    1  UNL1        0.0000
     23 C          -0.9951    2.6158   -0.8867 C.ar    1  UNL1        0.0000
     24 C          -3.4879   -4.2236   -0.1781 C.3     1  UNL1        0.0000
     25 C          -0.9504   -4.8121   -1.7567 C.3     1  UNL1        0.0000
     26 C          -1.0415   -5.3440    1.2496 C.3     1  UNL1        0.0000
     27 C          -4.5401    2.3119   -1.7083 C.3     1  UNL1        0.0000
     28 C          -3.9118    4.2699    0.5583 C.3     1  UNL1        0.0000
     29 C          -5.5358    1.7599    1.1104 C.3     1  UNL1        0.0000
     30 H           3.3848   -1.4350    0.2315 H       1  UNL1        0.0000
     31 H           0.7319   -1.5119    2.2166 H       1  UNL1        0.0000
     32 H           4.2544    0.1249   -1.5063 H       1  UNL1        0.0000
     33 H           2.9577   -0.3777    2.5060 H       1  UNL1        0.0000
     34 H           1.7687    0.9097    2.6655 H       1  UNL1        0.0000
     35 H           2.5399    1.2920   -2.5074 H       1  UNL1        0.0000
     36 H           3.1577    2.5617   -1.4663 H       1  UNL1        0.0000
     37 H           3.0260    2.4076    1.2676 H       1  UNL1        0.0000
     38 H           4.1574    1.6609    2.3821 H       1  UNL1        0.0000
     39 H           0.8201   -3.1776    0.7499 H       1  UNL1        0.0000
     40 H           2.4390   -1.5020   -2.3500 H       1  UNL1        0.0000
     41 H           0.4775   -2.7419   -1.9495 H       1  UNL1        0.0000
     42 H           0.6002    3.3594   -2.1409 H       1  UNL1        0.0000
     43 H           5.9821    1.5601   -0.7807 H       1  UNL1        0.0000
     44 H           6.0350    2.1071    0.8857 H       1  UNL1        0.0000
     45 H           4.9524    2.9112   -0.2588 H       1  UNL1        0.0000
     46 H          -1.6815    3.3446   -1.3046 H       1  UNL1        0.0000
     47 H          -3.8593   -3.5740   -0.9760 H       1  UNL1        0.0000
     48 H          -3.9124   -3.8822    0.7705 H       1  UNL1        0.0000
     49 H          -3.8404   -5.2415   -0.3684 H       1  UNL1        0.0000
     50 H          -1.4094   -5.7800   -1.9836 H       1  UNL1        0.0000
     51 H          -1.2014   -4.1297   -2.5737 H       1  UNL1        0.0000
     52 H           0.1317   -4.9665   -1.7272 H       1  UNL1        0.0000
     53 H          -1.3787   -4.9846    2.2262 H       1  UNL1        0.0000
     54 H          -1.4540   -6.3447    1.0903 H       1  UNL1        0.0000
     55 H           0.0490   -5.4246    1.2696 H       1  UNL1        0.0000
     56 H          -3.7795    2.7746   -2.3428 H       1  UNL1        0.0000
     57 H          -4.6354    1.2612   -1.9980 H       1  UNL1        0.0000
     58 H          -5.4945    2.8091   -1.9059 H       1  UNL1        0.0000
     59 H          -3.1467    4.7570   -0.0519 H       1  UNL1        0.0000
     60 H          -4.8574    4.7970    0.3998 H       1  UNL1        0.0000
     61 H          -3.6319    4.3788    1.6103 H       1  UNL1        0.0000
     62 H          -5.6958    0.7053    0.8678 H       1  UNL1        0.0000
     63 H          -5.3324    1.8416    2.1821 H       1  UNL1        0.0000
     64 H          -6.4547    2.3103    0.8886 H       1  UNL1        0.0000
@<TRIPOS>BOND
     1     1     4    1
     2     1    24    1
     3     1    25    1
     4     1    26    1
     5     2     5    1
     6     2    27    1
     7     2    28    1
     8     2    29    1
     9     3     9    1
    10     3    18    1
    11     4    15    1
    12     5    22    1
    13     6    10    1
    14     6    14    1
    15     6    21    1
    16     7     8    1
    17     7     9    1
    18     7    11    1
    19     7    12    1
    20     8    10    1
    21     8    17    1
    22     8    30    1
    23     9    15    1
    24     9    31    1
    25    10    13    1
    26    10    32    1
    27    11    14    1
    28    11    33    1
    29    11    34    1
    30    12    16   ar
    31    12    18   ar
    32    13    16    1
    33    13    35    1
    34    13    36    1
    35    14    37    1
    36    14    38    1
    37    15    19    1
    38    15    39    1
    39    16    20   ar
    40    17    19    2
    41    17    40    1
    42    18    22   ar
    43    19    41    1
    44    20    23   ar
    45    20    42    1
    46    21    43    1
    47    21    44    1
    48    21    45    1
    49    22    23   ar
    50    23    46    1
    51    24    47    1
    52    24    48    1
    53    24    49    1
    54    25    50    1
    55    25    51    1
    56    25    52    1
    57    26    53    1
    58    26    54    1
    59    26    55    1
    60    27    56    1
    61    27    57    1
    62    27    58    1
    63    28    59    1
    64    28    60    1
    65    28    61    1
    66    29    62    1
    67    29    63    1
    68    29    64    1
@<TRIPOS>MOLECULE
129668914
 47 51 0 0 0
SMALL
GASTEIGER

@<TRIPOS>ATOM
      1 O          -0.5853   -1.6464   -1.2157 O.3     1  UNL1       -0.4803
      2 O          -2.5542   -1.5850    0.4893 O.3     1  UNL1       -0.3736
      3 O           0.7516   -4.1785   -0.7007 O.3     1  UNL1       -0.5033
      4 O          -3.1160    1.5660   -0.7858 O.2     1  UNL1       -0.2925
      5 N           2.2343    2.6815   -0.4074 N.3     1  UNL1       -0.3015
      6 N          -5.6314    0.9342   -0.0440 N.3     1  UNL1       -0.3237
      7 C           0.2854    0.5371   -0.5993 C.3     1  UNL1        0.0487
      8 C           0.2265    1.6137    0.4937 C.3     1  UNL1        0.0064
      9 C          -1.0011   -0.2699   -0.8938 C.3     1  UNL1        0.1497
     10 C           1.7036    2.0182    0.8081 C.3     1  UNL1        0.0213
     11 C           0.9162    1.1441   -1.8696 C.3     1  UNL1       -0.0263
     12 C           1.1197   -0.6015   -0.1155 C.ar    1  UNL1        0.0116
     13 C          -2.0381   -0.2777    0.2662 C.3     1  UNL1        0.1805
     14 C           2.5600    0.8153    1.3350 C.3     1  UNL1       -0.0110
     15 C           2.2705    1.8189   -1.5927 C.3     1  UNL1       -0.0001
     16 C           2.2132   -0.5166    0.7260 C.ar    1  UNL1       -0.0383
     17 C          -0.5651    1.1628    1.6916 C.2     1  UNL1       -0.0792
     18 C           0.6039   -1.8019   -0.5523 C.ar    1  UNL1        0.1664
     19 C          -1.5850    0.2996    1.5782 C.2     1  UNL1       -0.0456
     20 C          -3.2398    0.5442   -0.1114 C.2     1  UNL1        0.1856
     21 C           2.8654   -1.7096    1.0404 C.ar    1  UNL1       -0.0546
     22 C           3.5152    3.3472   -0.1938 C.3     1  UNL1       -0.0124
     23 C           1.2367   -2.9905   -0.2643 C.ar    1  UNL1        0.1588
     24 C           2.3890   -2.9353    0.5311 C.ar    1  UNL1       -0.0162
     25 C          -4.5753    0.0300    0.3866 C.3     1  UNL1        0.0558
     26 H          -0.2977    2.5023    0.1103 H       1  UNL1        0.0368
     27 H          -1.4671    0.1010   -1.8152 H       1  UNL1        0.0779
     28 H           1.6810    2.7771    1.6025 H       1  UNL1        0.0472
     29 H           0.2271    1.8941   -2.2809 H       1  UNL1        0.0287
     30 H           1.0528    0.3853   -2.6509 H       1  UNL1        0.0287
     31 H           2.3773    0.7315    2.4150 H       1  UNL1        0.0329
     32 H           3.6316    1.0050    1.2191 H       1  UNL1        0.0329
     33 H           3.0532    1.0561   -1.4982 H       1  UNL1        0.0427
     34 H           2.5311    2.4176   -2.4746 H       1  UNL1        0.0427
     35 H          -0.3281    1.5829    2.6644 H       1  UNL1        0.0574
     36 H          -2.1381    0.0343    2.4763 H       1  UNL1        0.0603
     37 H           3.7307   -1.7060    1.6978 H       1  UNL1        0.0622
     38 H           3.4706    4.0100    0.6773 H       1  UNL1        0.0391
     39 H           3.7586    3.9818   -1.0535 H       1  UNL1        0.0391
     40 H           4.3426    2.6447   -0.0535 H       1  UNL1        0.0391
     41 H          -2.7063   -2.0005   -0.3771 H       1  UNL1        0.2113
     42 H           2.9154   -3.8497    0.7956 H       1  UNL1        0.0655
     43 H          -4.7842   -0.9585   -0.0312 H       1  UNL1        0.0502
     44 H          -4.5641   -0.0189    1.4790 H       1  UNL1        0.0502
     45 H           1.3340   -4.8907   -0.3850 H       1  UNL1        0.2923
     46 H          -6.5302    0.5855    0.2870 H       1  UNL1        0.1186
     47 H          -5.6875    0.9358   -1.0620 H       1  UNL1        0.1186
@<TRIPOS>BOND
     1     1     9    1
     2     1    18    1
     3     2    13    1
     4     2    41    1
     5     3    23    1
     6     3    45    1
     7     4    20    2
     8     5    10    1
     9     5    15    1
    10     5    22    1
    11     6    25    1
    12     6    46    1
    13     6    47    1
    14     7     8    1
    15     7     9    1
    16     7    11    1
    17     7    12    1
    18     8    10    1
    19     8    17    1
    20     8    26    1
    21     9    13    1
    22     9    27    1
    23    10    14    1
    24    10    28    1
    25    11    15    1
    26    11    29    1
    27    11    30    1
    28    12    16   ar
    29    12    18   ar
    30    13    19    1
    31    13    20    1
    32    14    16    1
    33    14    31    1
    34    14    32    1
    35    15    33    1
    36    15    34    1
    37    16    21   ar
    38    17    19    2
    39    17    35    1
    40    18    23   ar
    41    19    36    1
    42    20    25    1
    43    21    24   ar
    44    21    37    1
    45    22    38    1
    46    22    39    1
    47    22    40    1
    48    23    24   ar
    49    24    42    1
    50    25    43    1
    51    25    44    1
@<TRIPOS>MOLECULE
129677293
 52 56 0 0 0
SMALL
GASTEIGER

@<TRIPOS>ATOM
      1 O          -0.7816   -1.4470    0.8385 O.2     1  UNL1       -0.4849
      2 O           0.5659   -3.1888   -0.5196 O.3     1  UNL1       -0.3736
      3 O          -2.8218   -1.4841   -1.3897 O.3     1  UNL1       -0.3734
      4 O           3.0189   -2.2873    1.4832 O.2     1  UNL1       -0.2942
      5 O          -4.3367   -1.8394    0.6706 O.2     1  UNL1       -0.2942
      6 N           1.8566    3.0837    0.6115 N.3     1  UNL1       -0.3015
      7 C           0.7960    0.3771    0.5748 C.3     1  UNL1        0.0483
      8 C           1.9506    0.8267   -0.3354 C.3     1  UNL1        0.0064
      9 C           0.6566   -1.1501    0.8207 C.3     1  UNL1        0.1491
     10 C           1.7106    2.3332   -0.6581 C.3     1  UNL1        0.0213
     11 C          -0.5092    0.6198   -0.0982 C.2     1  UNL1        0.0068
     12 C           0.8725    1.1817    1.8904 C.3     1  UNL1       -0.0263
     13 C           0.3648    2.5636   -1.4187 C.3     1  UNL1       -0.0114
     14 C           1.3676   -2.0474   -0.2296 C.3     1  UNL1        0.1789
     15 C          -0.7969    1.7053   -0.9840 C.2     1  UNL1       -0.0426
     16 C           0.8965    2.6998    1.6512 C.3     1  UNL1       -0.0001
     17 C          -1.3323   -0.3956    0.1182 C.2     1  UNL1        0.1414
     18 C           2.0899   -0.0538   -1.5488 C.2     1  UNL1       -0.0792
     19 C          -2.7231   -0.4522   -0.4169 C.3     1  UNL1        0.1835
     20 C           1.8118   -1.3642   -1.4938 C.2     1  UNL1       -0.0456
     21 C          -2.0561    1.8456   -1.4352 C.2     1  UNL1       -0.0768
     22 C          -3.1768    0.8928   -1.0585 C.3     1  UNL1        0.0089
     23 C           1.8931    4.5311    0.4303 C.3     1  UNL1       -0.0124
     24 C           2.6256   -2.6192    0.3659 C.2     1  UNL1        0.1691
     25 C          -3.6440   -0.8236    0.7112 C.2     1  UNL1        0.1694
     26 C           3.3792   -3.6160   -0.4726 C.3     1  UNL1       -0.0027
     27 C          -3.6778    0.1084    1.8924 C.3     1  UNL1       -0.0027
     28 H           2.9055    0.7420    0.2055 H       1  UNL1        0.0368
     29 H           0.9781   -1.3918    1.8398 H       1  UNL1        0.0779
     30 H           2.5224    2.6628   -1.3216 H       1  UNL1        0.0472
     31 H           1.7853    0.8940    2.4297 H       1  UNL1        0.0287
     32 H           0.0327    0.9391    2.5544 H       1  UNL1        0.0287
     33 H           0.5533    2.3357   -2.4777 H       1  UNL1        0.0329
     34 H           0.0779    3.6204   -1.3963 H       1  UNL1        0.0329
     35 H          -0.1120    3.0546    1.4053 H       1  UNL1        0.0427
     36 H           1.1689    3.1827    2.5981 H       1  UNL1        0.0427
     37 H           2.4584    0.3764   -2.4749 H       1  UNL1        0.0574
     38 H           1.9426   -1.9625   -2.3920 H       1  UNL1        0.0603
     39 H          -2.3006    2.6549   -2.1176 H       1  UNL1        0.0576
     40 H          -3.8645    1.4520   -0.4160 H       1  UNL1        0.0344
     41 H          -3.7370    0.6826   -1.9794 H       1  UNL1        0.0344
     42 H           2.6308    4.8115   -0.3295 H       1  UNL1        0.0391
     43 H           2.2049    5.0202    1.3601 H       1  UNL1        0.0391
     44 H           0.9228    4.9485    0.1433 H       1  UNL1        0.0391
     45 H           0.2460   -3.5545    0.3231 H       1  UNL1        0.2113
     46 H          -3.7315   -1.4956   -1.7332 H       1  UNL1        0.2113
     47 H           2.7134   -4.3851   -0.8700 H       1  UNL1        0.0307
     48 H           4.1215   -4.1173    0.1569 H       1  UNL1        0.0307
     49 H           3.9075   -3.1131   -1.2857 H       1  UNL1        0.0307
     50 H          -4.2655    0.9992    1.6635 H       1  UNL1        0.0307
     51 H          -2.6765    0.3928    2.2201 H       1  UNL1        0.0307
     52 H          -4.1582   -0.4070    2.7306 H       1  UNL1        0.0307
@<TRIPOS>BOND
     1     1     9    1
     2     1    17    1
     3     2    14    1
     4     2    45    1
     5     3    19    1
     6     3    46    1
     7     4    24    2
     8     5    25    2
     9     6    10    1
    10     6    16    1
    11     6    23    1
    12     7     8    1
    13     7     9    1
    14     7    11    1
    15     7    12    1
    16     8    10    1
    17     8    18    1
    18     8    28    1
    19     9    14    1
    20     9    29    1
    21    10    13    1
    22    10    30    1
    23    11    15    1
    24    11    17    2
    25    12    16    1
    26    12    31    1
    27    12    32    1
    28    13    15    1
    29    13    33    1
    30    13    34    1
    31    14    20    1
    32    14    24    1
    33    15    21    2
    34    16    35    1
    35    16    36    1
    36    17    19    1
    37    18    20    2
    38    18    37    1
    39    19    22    1
    40    19    25    1
    41    20    38    1
    42    21    22    1
    43    21    39    1
    44    22    40    1
    45    22    41    1
    46    23    42    1
    47    23    43    1
    48    23    44    1
    49    24    26    1
    50    25    27    1
    51    26    47    1
    52    26    48    1
    53    26    49    1
    54    27    50    1
    55    27    51    1
    56    27    52    1
@<TRIPOS>MOLECULE
129677299
 47 51 0 0 0
SMALL
GASTEIGER

@<TRIPOS>ATOM
      1 O           1.3597    0.9180    1.3394 O.2     1  UNL1       -0.4856
      2 O           1.8566    3.1506    0.0599 O.3     1  UNL1       -0.3841
      3 O           2.9173   -1.4985    1.6235 O.3     1  UNL1       -0.3734
      4 O           2.9497   -0.8040   -1.7778 O.2     1  UNL1       -0.2942
      5 N          -3.6375   -0.3329    0.2325 N.3     1  UNL1       -0.3015
      6 C          -0.9719    0.7410    0.6655 C.3     1  UNL1        0.0476
      7 C          -1.8572    1.1707   -0.5177 C.3     1  UNL1        0.0063
      8 C          -2.7259   -0.0650   -0.9051 C.3     1  UNL1        0.0213
      9 C           0.1632    1.7209    1.0682 C.3     1  UNL1        0.1394
     10 C          -0.1413   -0.4262    0.2607 C.2     1  UNL1        0.0068
     11 C          -1.8818    0.3738    1.8557 C.3     1  UNL1       -0.0263
     12 C          -1.8549   -1.2815   -1.3573 C.3     1  UNL1       -0.0114
     13 C          -0.5610   -1.4828   -0.6094 C.2     1  UNL1       -0.0426
     14 C          -2.9506   -0.6662    1.4846 C.3     1  UNL1       -0.0001
     15 C           1.1046   -0.2778    0.6868 C.2     1  UNL1        0.1414
     16 C           0.4731    2.8122    0.0144 C.3     1  UNL1        0.1110
     17 C          -1.0341    1.7412   -1.6456 C.2     1  UNL1       -0.0799
     18 C           2.1781   -1.2801    0.4334 C.3     1  UNL1        0.1835
     19 C           0.0554    2.4815   -1.3926 C.2     1  UNL1       -0.0559
     20 C           0.2552   -2.5405   -0.7689 C.2     1  UNL1       -0.0768
     21 C           1.6108   -2.6306   -0.0924 C.3     1  UNL1        0.0089
     22 C          -4.6816   -1.3045   -0.0759 C.3     1  UNL1       -0.0124
     23 C           3.1135   -0.6610   -0.5671 C.2     1  UNL1        0.1694
     24 C           4.2606    0.1416   -0.0149 C.3     1  UNL1       -0.0027
     25 H          -2.5355    1.9782   -0.2020 H       1  UNL1        0.0368
     26 H          -3.3523    0.2264   -1.7598 H       1  UNL1        0.0472
     27 H          -0.0683    2.2245    2.0155 H       1  UNL1        0.0771
     28 H          -2.3838    1.2837    2.2118 H       1  UNL1        0.0287
     29 H          -1.2935   -0.0058    2.7012 H       1  UNL1        0.0287
     30 H          -1.5921   -1.1111   -2.4112 H       1  UNL1        0.0329
     31 H          -2.4393   -2.2078   -1.3505 H       1  UNL1        0.0329
     32 H          -2.4986   -1.6642    1.4321 H       1  UNL1        0.0427
     33 H          -3.6793   -0.7027    2.3042 H       1  UNL1        0.0427
     34 H          -0.0790    3.7186    0.2956 H       1  UNL1        0.0675
     35 H          -1.3531    1.5841   -2.6710 H       1  UNL1        0.0573
     36 H           0.6037    2.9191   -2.2214 H       1  UNL1        0.0596
     37 H          -0.0311   -3.3560   -1.4267 H       1  UNL1        0.0576
     38 H           1.5174   -3.3439    0.7375 H       1  UNL1        0.0344
     39 H           2.3186   -3.0896   -0.7945 H       1  UNL1        0.0344
     40 H          -5.2059   -1.0350   -0.9992 H       1  UNL1        0.0391
     41 H          -5.4367   -1.3119    0.7183 H       1  UNL1        0.0391
     42 H          -4.2972   -2.3242   -0.1796 H       1  UNL1        0.0391
     43 H           2.0077    3.8778   -0.5679 H       1  UNL1        0.2104
     44 H           3.5347   -2.2334    1.4659 H       1  UNL1        0.2113
     45 H           3.9152    0.8672    0.7240 H       1  UNL1        0.0307
     46 H           4.7336    0.6962   -0.8313 H       1  UNL1        0.0307
     47 H           5.0059   -0.5251    0.4257 H       1  UNL1        0.0307
@<TRIPOS>BOND
     1     1     9    1
     2     1    15    1
     3     2    16    1
     4     2    43    1
     5     3    18    1
     6     3    44    1
     7     4    23    2
     8     5     8    1
     9     5    14    1
    10     5    22    1
    11     6     7    1
    12     6     9    1
    13     6    10    1
    14     6    11    1
    15     7     8    1
    16     7    17    1
    17     7    25    1
    18     8    12    1
    19     8    26    1
    20     9    16    1
    21     9    27    1
    22    10    13    1
    23    10    15    2
    24    11    14    1
    25    11    28    1
    26    11    29    1
    27    12    13    1
    28    12    30    1
    29    12    31    1
    30    13    20    2
    31    14    32    1
    32    14    33    1
    33    15    18    1
    34    16    19    1
    35    16    34    1
    36    17    19    2
    37    17    35    1
    38    18    21    1
    39    18    23    1
    40    19    36    1
    41    20    21    1
    42    20    37    1
    43    21    38    1
    44    21    39    1
    45    22    40    1
    46    22    41    1
    47    22    42    1
    48    23    24    1
    49    24    45    1
    50    24    46    1
    51    24    47    1
@<TRIPOS>MOLECULE
129695836
 73 78 0 0 0
SMALL
GASTEIGER

@<TRIPOS>ATOM
      1 O          -2.0215    1.3966    1.7468 O.3     1  UNL1       -0.3597
      2 O           0.9106    1.5741    2.3812 O.3     1  UNL1       -0.3854
      3 O           2.4040    1.2873   -0.0449 O.3     1  UNL1       -0.3658
      4 O          -3.9370    3.2459    1.7250 O.3     1  UNL1       -0.3852
      5 N          -3.5635   -2.0386   -1.9865 N.3     1  UNL1       -0.3015
      6 C          -3.0534   -0.0924    0.1254 C.3     1  UNL1        0.0325
      7 C          -3.6408    0.2903   -1.2594 C.3     1  UNL1        0.0050
      8 C          -1.5453   -0.0911    0.0848 C.2     1  UNL1       -0.0271
      9 C          -3.3151    0.9554    1.2383 C.3     1  UNL1        0.0992
     10 C          -1.0159    0.4334    1.3770 C.3     1  UNL1        0.1178
     11 C          -3.0420   -0.6878   -2.3012 C.3     1  UNL1        0.0209
     12 C          -3.5921   -1.5001    0.4534 C.3     1  UNL1       -0.0277
     13 C          -0.8276   -0.2370   -1.0424 C.2     1  UNL1       -0.0623
     14 C          -1.4952   -0.5619   -2.3587 C.3     1  UNL1       -0.0150
     15 C           0.3193    1.1762    1.1459 C.3     1  UNL1        0.1209
     16 C           1.3290    0.3758    0.2673 C.3     1  UNL1        0.1267
     17 C          -3.2326   -2.5209   -0.6413 C.3     1  UNL1       -0.0002
     18 C          -4.0902    2.2006    0.7700 C.3     1  UNL1        0.1003
     19 C           0.6513    0.0662   -1.1002 C.3     1  UNL1        0.0047
     20 C          -3.4504    1.7560   -1.5645 C.2     1  UNL1       -0.0799
     21 C          -0.9617   -0.6125    2.5026 C.3     1  UNL1       -0.0293
     22 C          -3.6641    2.6600   -0.5970 C.2     1  UNL1       -0.0570
     23 C           1.9522   -0.8407    0.9609 C.ar    1  UNL1       -0.0130
     24 C          -3.2496   -3.0361   -3.0038 C.3     1  UNL1       -0.0125
     25 C           3.3586    0.6836   -0.9035 C.3     1  UNL1        0.0489
     26 C           1.4072   -2.1098    0.7664 C.ar    1  UNL1       -0.0557
     27 C           3.0643   -0.6783    1.7868 C.ar    1  UNL1       -0.0557
     28 C           4.6608    1.4671   -0.8197 C.3     1  UNL1       -0.0294
     29 C           1.9744   -3.2168    1.3979 C.ar    1  UNL1       -0.0614
     30 C           3.6315   -1.7851    2.4184 C.ar    1  UNL1       -0.0614
     31 C           3.0865   -3.0544    2.2240 C.ar    1  UNL1       -0.0617
     32 C           5.7423    0.8606   -1.7111 C.3     1  UNL1       -0.0512
     33 C           7.0586    1.6279   -1.5888 C.3     1  UNL1       -0.0558
     34 C           8.1474    1.0067   -2.4491 C.3     1  UNL1       -0.0653
     35 H          -4.7322    0.1381   -1.2522 H       1  UNL1        0.0368
     36 H          -3.8389    0.5142    2.0952 H       1  UNL1        0.0634
     37 H          -3.4364   -0.4130   -3.2893 H       1  UNL1        0.0471
     38 H          -4.6847   -1.4538    0.5563 H       1  UNL1        0.0287
     39 H          -3.2124   -1.8659    1.4135 H       1  UNL1        0.0287
     40 H          -1.2598    0.2531   -3.0572 H       1  UNL1        0.0325
     41 H          -1.0372   -1.4586   -2.7880 H       1  UNL1        0.0325
     42 H           0.1087    2.1249    0.6297 H       1  UNL1        0.0658
     43 H          -2.1695   -2.7829   -0.5705 H       1  UNL1        0.0427
     44 H          -3.7922   -3.4419   -0.4353 H       1  UNL1        0.0427
     45 H          -5.1604    1.9618    0.7279 H       1  UNL1        0.0664
     46 H           1.1645   -0.7525   -1.6212 H       1  UNL1        0.0342
     47 H           0.7474    0.9453   -1.7546 H       1  UNL1        0.0342
     48 H          -3.2011    2.0770   -2.5700 H       1  UNL1        0.0573
     49 H          -0.2564   -0.3363    3.2925 H       1  UNL1        0.0261
     50 H          -0.6958   -1.6080    2.1456 H       1  UNL1        0.0261
     51 H          -1.9296   -0.7097    3.0084 H       1  UNL1        0.0261
     52 H          -3.5855    3.7198   -0.8146 H       1  UNL1        0.0595
     53 H          -2.1905   -3.3123   -3.0163 H       1  UNL1        0.0391
     54 H          -3.8303   -3.9491   -2.8292 H       1  UNL1        0.0391
     55 H          -3.5274   -2.6783   -4.0012 H       1  UNL1        0.0391
     56 H           0.2444    2.0862    2.8709 H       1  UNL1        0.2101
     57 H          -4.4641    4.0050    1.4219 H       1  UNL1        0.2103
     58 H           3.5706   -0.3723   -0.7159 H       1  UNL1        0.0560
     59 H           3.0000    0.7565   -1.9373 H       1  UNL1        0.0560
     60 H           0.5457   -2.2839    0.1320 H       1  UNL1        0.0621
     61 H           3.4963    0.3000    1.9775 H       1  UNL1        0.0621
     62 H           4.4783    2.5122   -1.0996 H       1  UNL1        0.0287
     63 H           5.0028    1.4912    0.2224 H       1  UNL1        0.0287
     64 H           1.5502   -4.2051    1.2468 H       1  UNL1        0.0618
     65 H           4.4941   -1.6581    3.0660 H       1  UNL1        0.0618
     66 H           3.5274   -3.9159    2.7168 H       1  UNL1        0.0618
     67 H           5.4068    0.8674   -2.7552 H       1  UNL1        0.0266
     68 H           5.9042   -0.1875   -1.4306 H       1  UNL1        0.0266
     69 H           6.9106    2.6711   -1.8912 H       1  UNL1        0.0263
     70 H           7.3895    1.6366   -0.5437 H       1  UNL1        0.0263
     71 H           8.3430   -0.0276   -2.1484 H       1  UNL1        0.0230
     72 H           7.8616    1.0094   -3.5059 H       1  UNL1        0.0230
     73 H           9.0792    1.5718   -2.3477 H       1  UNL1        0.0230
@<TRIPOS>BOND
     1     1     9    1
     2     1    10    1
     3     2    15    1
     4     2    56    1
     5     3    16    1
     6     3    25    1
     7     4    18    1
     8     4    57    1
     9     5    11    1
    10     5    17    1
    11     5    24    1
    12     6     7    1
    13     6     8    1
    14     6     9    1
    15     6    12    1
    16     7    11    1
    17     7    20    1
    18     7    35    1
    19     8    10    1
    20     8    13    2
    21     9    18    1
    22     9    36    1
    23    10    15    1
    24    10    21    1
    25    11    14    1
    26    11    37    1
    27    12    17    1
    28    12    38    1
    29    12    39    1
    30    13    14    1
    31    13    19    1
    32    14    40    1
    33    14    41    1
    34    15    16    1
    35    15    42    1
    36    16    19    1
    37    16    23    1
    38    17    43    1
    39    17    44    1
    40    18    22    1
    41    18    45    1
    42    19    46    1
    43    19    47    1
    44    20    22    2
    45    20    48    1
    46    21    49    1
    47    21    50    1
    48    21    51    1
    49    22    52    1
    50    23    26   ar
    51    23    27   ar
    52    24    53    1
    53    24    54    1
    54    24    55    1
    55    25    28    1
    56    25    58    1
    57    25    59    1
    58    26    29   ar
    59    26    60    1
    60    27    30   ar
    61    27    61    1
    62    28    32    1
    63    28    62    1
    64    28    63    1
    65    29    31   ar
    66    29    64    1
    67    30    31   ar
    68    30    65    1
    69    31    66    1
    70    32    33    1
    71    32    67    1
    72    32    68    1
    73    33    34    1
    74    33    69    1
    75    33    70    1
    76    34    71    1
    77    34    72    1
    78    34    73    1
@<TRIPOS>MOLECULE
129780026
 55 60 0 0 0
SMALL
GASTEIGER

@<TRIPOS>ATOM
      1 CL         -7.7654    0.8833   -0.7130 Cl      1  UNL1       -0.0835
      2 O           0.5271   -1.6822    1.1355 O.2     1  UNL1       -0.4861
      3 O           1.3566   -3.8967   -0.0175 O.3     1  UNL1       -0.3841
      4 O          -1.5032   -1.0851   -1.0858 O.3     1  UNL1       -0.3802
      5 N           4.3414    1.8747    0.3693 N.3     1  UNL1       -0.3015
      6 C           2.5277   -0.3774    0.6638 C.3     1  UNL1        0.0476
      7 C           3.6369   -0.3397   -0.4027 C.3     1  UNL1        0.0063
      8 C           1.9862   -1.7822    1.0426 C.3     1  UNL1        0.1394
      9 C           3.8188    1.1528   -0.8150 C.3     1  UNL1        0.0213
     10 C           1.2805    0.2125    0.1041 C.2     1  UNL1        0.0063
     11 C           3.0002    0.4247    1.8934 C.3     1  UNL1       -0.0263
     12 C           2.5185    1.7532   -1.4397 C.3     1  UNL1       -0.0114
     13 C           1.2204    1.3094   -0.8141 C.2     1  UNL1       -0.0426
     14 C           0.2310   -0.5291    0.4273 C.2     1  UNL1        0.1343
     15 C           3.4470    1.8502    1.5314 C.3     1  UNL1       -0.0001
     16 C           2.3815   -2.9107    0.0588 C.3     1  UNL1        0.1110
     17 C           3.3396   -1.2769   -1.5464 C.2     1  UNL1       -0.0799
     18 C          -1.1667   -0.2089   -0.0033 C.3     1  UNL1        0.1302
     19 C           2.7398   -2.4562   -1.3276 C.2     1  UNL1       -0.0559
     20 C          -1.2707    1.2571   -0.5357 C.3     1  UNL1        0.0022
     21 C           0.0133    1.8187   -1.1189 C.2     1  UNL1       -0.0772
     22 C           4.7887    3.2314    0.0719 C.3     1  UNL1       -0.0124
     23 C          -2.1891   -0.4311    1.1136 C.3     1  UNL1        0.0087
     24 C          -3.5830   -0.1034    0.6578 C.ar    1  UNL1       -0.0441
     25 C          -4.0800    1.1910    0.8102 C.ar    1  UNL1       -0.0571
     26 C          -4.3797   -1.0930    0.0821 C.ar    1  UNL1       -0.0571
     27 C          -5.3736    1.4957    0.3872 C.ar    1  UNL1       -0.0431
     28 C          -5.6735   -0.7884   -0.3409 C.ar    1  UNL1       -0.0431
     29 C          -6.1704    0.5060   -0.1883 C.ar    1  UNL1        0.0410
     30 H           4.5851   -0.6900    0.0334 H       1  UNL1        0.0368
     31 H           2.3213   -2.0771    2.0452 H       1  UNL1        0.0771
     32 H           4.6006    1.1895   -1.5864 H       1  UNL1        0.0472
     33 H           3.8442   -0.1027    2.3583 H       1  UNL1        0.0287
     34 H           2.2125    0.4808    2.6559 H       1  UNL1        0.0287
     35 H           2.4926    1.4346   -2.4917 H       1  UNL1        0.0329
     36 H           2.5657    2.8470   -1.4692 H       1  UNL1        0.0329
     37 H           3.9667    2.2682    2.4028 H       1  UNL1        0.0427
     38 H           2.5686    2.4857    1.3650 H       1  UNL1        0.0427
     39 H           3.2707   -3.4129    0.4620 H       1  UNL1        0.0675
     40 H           3.6552   -1.0104   -2.5500 H       1  UNL1        0.0573
     41 H           2.5820   -3.1320   -2.1628 H       1  UNL1        0.0596
     42 H          -1.5275    1.9511    0.2722 H       1  UNL1        0.0340
     43 H          -2.0407    1.3232   -1.3144 H       1  UNL1        0.0340
     44 H          -0.0703    2.6481   -1.8151 H       1  UNL1        0.0576
     45 H           5.4759    3.2383   -0.7811 H       1  UNL1        0.0391
     46 H           5.3464    3.6399    0.9223 H       1  UNL1        0.0391
     47 H           3.9611    3.9148   -0.1429 H       1  UNL1        0.0391
     48 H          -1.9389    0.1685    1.9992 H       1  UNL1        0.0345
     49 H          -2.1730   -1.4780    1.4469 H       1  UNL1        0.0345
     50 H           1.6839   -4.6281   -0.5688 H       1  UNL1        0.2104
     51 H          -0.8860   -0.9149   -1.8181 H       1  UNL1        0.2108
     52 H          -3.4888    1.9700    1.2827 H       1  UNL1        0.0621
     53 H          -4.0062   -2.1061   -0.0413 H       1  UNL1        0.0621
     54 H          -5.7499    2.5071    0.5178 H       1  UNL1        0.0632
     55 H          -6.2830   -1.5696   -0.7878 H       1  UNL1        0.0632
@<TRIPOS>BOND
     1     1    29    1
     2     2     8    1
     3     2    14    1
     4     3    16    1
     5     3    50    1
     6     4    18    1
     7     4    51    1
     8     5     9    1
     9     5    15    1
    10     5    22    1
    11     6     7    1
    12     6     8    1
    13     6    10    1
    14     6    11    1
    15     7     9    1
    16     7    17    1
    17     7    30    1
    18     8    16    1
    19     8    31    1
    20     9    12    1
    21     9    32    1
    22    10    13    1
    23    10    14    2
    24    11    15    1
    25    11    33    1
    26    11    34    1
    27    12    13    1
    28    12    35    1
    29    12    36    1
    30    13    21    2
    31    14    18    1
    32    15    37    1
    33    15    38    1
    34    16    19    1
    35    16    39    1
    36    17    19    2
    37    17    40    1
    38    18    20    1
    39    18    23    1
    40    19    41    1
    41    20    21    1
    42    20    42    1
    43    20    43    1
    44    21    44    1
    45    22    45    1
    46    22    46    1
    47    22    47    1
    48    23    24    1
    49    23    48    1
    50    23    49    1
    51    24    25   ar
    52    24    26   ar
    53    25    27   ar
    54    25    52    1
    55    26    28   ar
    56    26    53    1
    57    27    29   ar
    58    27    54    1
    59    28    29   ar
    60    28    55    1
@<TRIPOS>MOLECULE
129780127
 55 60 0 0 0
SMALL
GASTEIGER

@<TRIPOS>ATOM
      1 CL         -4.0726   -2.2531    0.7325 Cl      1  UNL1       -0.0833
      2 O           0.0867   -1.4854    1.0061 O.2     1  UNL1       -0.4861
      3 O           0.4840   -3.7251   -0.3157 O.3     1  UNL1       -0.3841
      4 O          -1.7547   -0.3341   -1.1610 O.3     1  UNL1       -0.3802
      5 N           4.5338    1.3022    0.5166 N.3     1  UNL1       -0.3015
      6 C           2.3105   -0.5662    0.6362 C.3     1  UNL1        0.0476
      7 C           3.4213   -0.6656   -0.4247 C.3     1  UNL1        0.0063
      8 C           1.4993   -1.8623    0.9051 C.3     1  UNL1        0.1394
      9 C           3.8976    0.7893   -0.7199 C.3     1  UNL1        0.0213
     10 C           1.2112    0.2978    0.1247 C.2     1  UNL1        0.0063
     11 C           2.9126    0.0316    1.9241 C.3     1  UNL1       -0.0263
     12 C           2.7492    1.6788   -1.2955 C.3     1  UNL1       -0.0114
     13 C           1.3803    1.4519   -0.7057 C.2     1  UNL1       -0.0426
     14 C           0.0323   -0.2460    0.3898 C.2     1  UNL1        0.1343
     15 C           3.6348    1.3651    1.6737 C.3     1  UNL1       -0.0001
     16 C           1.6807   -2.9680   -0.1636 C.3     1  UNL1        0.1110
     17 C           2.9634   -1.4363   -1.6375 C.2     1  UNL1       -0.0799
     18 C          -1.2693    0.3739   -0.0140 C.3     1  UNL1        0.1302
     19 C           2.1414   -2.4882   -1.5107 C.2     1  UNL1       -0.0559
     20 C          -1.0767    1.8681   -0.4309 C.3     1  UNL1        0.0022
     21 C           0.3008    2.2097   -0.9694 C.2     1  UNL1       -0.0772
     22 C           5.2421    2.5635    0.3252 C.3     1  UNL1       -0.0124
     23 C          -2.3317    0.2720    1.0828 C.3     1  UNL1        0.0101
     24 C          -3.7170    0.4410    0.5254 C.ar    1  UNL1       -0.0259
     25 C          -4.5676   -0.6479    0.3355 C.ar    1  UNL1        0.0442
     26 C          -4.1454    1.7266    0.1952 C.ar    1  UNL1       -0.0571
     27 C          -5.8469   -0.4513   -0.1844 C.ar    1  UNL1       -0.0431
     28 C          -5.4248    1.9233   -0.3250 C.ar    1  UNL1       -0.0614
     29 C          -6.2756    0.8345   -0.5148 C.ar    1  UNL1       -0.0604
     30 H           4.2761   -1.2272   -0.0175 H       1  UNL1        0.0368
     31 H           1.7554   -2.2927    1.8816 H       1  UNL1        0.0771
     32 H           4.6828    0.7307   -1.4866 H       1  UNL1        0.0472
     33 H           3.6303   -0.6850    2.3463 H       1  UNL1        0.0287
     34 H           2.1400    0.1827    2.6891 H       1  UNL1        0.0287
     35 H           2.6771    1.4526   -2.3690 H       1  UNL1        0.0329
     36 H           3.0098    2.7412   -1.2401 H       1  UNL1        0.0329
     37 H           4.2134    1.6054    2.5746 H       1  UNL1        0.0427
     38 H           2.9003    2.1714    1.5575 H       1  UNL1        0.0427
     39 H           2.4484   -3.6641    0.1990 H       1  UNL1        0.0675
     40 H           3.3397   -1.1612   -2.6176 H       1  UNL1        0.0573
     41 H           1.8668   -3.0543   -2.3958 H       1  UNL1        0.0596
     42 H          -1.2391    2.5412    0.4199 H       1  UNL1        0.0340
     43 H          -1.7930    2.1296   -1.2194 H       1  UNL1        0.0340
     44 H           0.3914    3.0900   -1.5992 H       1  UNL1        0.0576
     45 H           5.9299    2.5006   -0.5251 H       1  UNL1        0.0391
     46 H           5.8563    2.7887    1.2045 H       1  UNL1        0.0391
     47 H           4.5674    3.4103    0.1644 H       1  UNL1        0.0391
     48 H          -2.1582    1.0252    1.8645 H       1  UNL1        0.0346
     49 H          -2.2460   -0.6750    1.6245 H       1  UNL1        0.0346
     50 H           0.6701   -4.4622   -0.9223 H       1  UNL1        0.2104
     51 H          -1.1041   -0.2354   -1.8774 H       1  UNL1        0.2108
     52 H          -3.5241    2.5988    0.3693 H       1  UNL1        0.0621
     53 H          -6.5221   -1.2892   -0.3380 H       1  UNL1        0.0632
     54 H          -5.7622    2.9254   -0.5733 H       1  UNL1        0.0618
     55 H          -7.2724    0.9880   -0.9177 H       1  UNL1        0.0618
@<TRIPOS>BOND
     1     1    25    1
     2     2     8    1
     3     2    14    1
     4     3    16    1
     5     3    50    1
     6     4    18    1
     7     4    51    1
     8     5     9    1
     9     5    15    1
    10     5    22    1
    11     6     7    1
    12     6     8    1
    13     6    10    1
    14     6    11    1
    15     7     9    1
    16     7    17    1
    17     7    30    1
    18     8    16    1
    19     8    31    1
    20     9    12    1
    21     9    32    1
    22    10    13    1
    23    10    14    2
    24    11    15    1
    25    11    33    1
    26    11    34    1
    27    12    13    1
    28    12    35    1
    29    12    36    1
    30    13    21    2
    31    14    18    1
    32    15    37    1
    33    15    38    1
    34    16    19    1
    35    16    39    1
    36    17    19    2
    37    17    40    1
    38    18    20    1
    39    18    23    1
    40    19    41    1
    41    20    21    1
    42    20    42    1
    43    20    43    1
    44    21    44    1
    45    22    45    1
    46    22    46    1
    47    22    47    1
    48    23    24    1
    49    23    48    1
    50    23    49    1
    51    24    25   ar
    52    24    26   ar
    53    25    27   ar
    54    26    28   ar
    55    26    52    1
    56    27    29   ar
    57    27    53    1
    58    28    29   ar
    59    28    54    1
    60    29    55    1
@<TRIPOS>MOLECULE
129866705
 43 47 0 0 0
SMALL
GASTEIGER

@<TRIPOS>ATOM
      1 F          -5.2196   -0.1017   -1.1144 F       1  UNL1       -0.1328
      2 F          -4.9675   -0.5419    1.0113 F       1  UNL1       -0.1328
      3 F          -3.9788   -1.7979   -0.5150 F       1  UNL1       -0.1328
      4 O          -0.7144    1.4862   -1.0954 O.3     1  UNL1       -0.4811
      5 O          -0.2616    3.7199    0.1793 O.3     1  UNL1       -0.3841
      6 O          -3.2109    0.3293   -0.1682 O.3     1  UNL1       -0.4020
      7 N           3.5948   -1.4591   -0.5708 N.3     1  UNL1       -0.3015
      8 C           1.4959    0.5418   -0.7021 C.3     1  UNL1        0.0480
      9 C           2.6796    0.6466    0.2716 C.3     1  UNL1        0.0064
     10 C           3.0761   -0.8148    0.6601 C.3     1  UNL1        0.0213
     11 C           0.7122    1.8358   -1.0236 C.3     1  UNL1        0.1399
     12 C           1.9412   -0.2167   -1.9680 C.3     1  UNL1       -0.0263
     13 C           0.3909   -0.1970   -0.0219 C.ar    1  UNL1        0.0116
     14 C           1.9130   -1.5896    1.3700 C.3     1  UNL1       -0.0110
     15 C           2.6065   -1.5658   -1.6488 C.3     1  UNL1       -0.0001
     16 C           0.5332   -1.2263    0.8912 C.ar    1  UNL1       -0.0383
     17 C           0.9496    2.9955   -0.0213 C.3     1  UNL1        0.1110
     18 C           2.3592    1.5429    1.4406 C.2     1  UNL1       -0.0799
     19 C          -0.8312    0.3531   -0.3365 C.ar    1  UNL1        0.1669
     20 C           1.5510    2.6045    1.3025 C.2     1  UNL1       -0.0559
     21 C          -0.6371   -1.7898    1.4028 C.ar    1  UNL1       -0.0546
     22 C           4.2539   -2.7374   -0.3237 C.3     1  UNL1       -0.0124
     23 C          -1.9999   -0.1911    0.1488 C.ar    1  UNL1        0.1717
     24 C          -1.8953   -1.2862    1.0160 C.ar    1  UNL1       -0.0157
     25 C          -4.3409   -0.5400   -0.1845 C.3     1  UNL1        0.5754
     26 H           3.5384    1.1117   -0.2360 H       1  UNL1        0.0368
     27 H           3.9134   -0.7570    1.3693 H       1  UNL1        0.0472
     28 H           0.9733    2.2058   -2.0236 H       1  UNL1        0.0772
     29 H           2.6595    0.4070   -2.5172 H       1  UNL1        0.0287
     30 H           1.0964   -0.3908   -2.6468 H       1  UNL1        0.0287
     31 H           1.9582   -1.3382    2.4384 H       1  UNL1        0.0329
     32 H           2.0516   -2.6732    1.3040 H       1  UNL1        0.0329
     33 H           1.8388   -2.3106   -1.4050 H       1  UNL1        0.0427
     34 H           3.0975   -1.9202   -2.5639 H       1  UNL1        0.0427
     35 H           1.6573    3.6963   -0.4834 H       1  UNL1        0.0675
     36 H           2.8271    1.3462    2.4001 H       1  UNL1        0.0573
     37 H           1.3837    3.2513    2.1590 H       1  UNL1        0.0596
     38 H          -0.5860   -2.5969    2.1287 H       1  UNL1        0.0622
     39 H           5.0087   -2.6418    0.4643 H       1  UNL1        0.0391
     40 H           4.7857   -3.0676   -1.2233 H       1  UNL1        0.0391
     41 H           3.5547   -3.5303   -0.0403 H       1  UNL1        0.0391
     42 H          -2.7705   -1.7376    1.4761 H       1  UNL1        0.0655
     43 H          -0.0645    4.4801    0.7529 H       1  UNL1        0.2104
@<TRIPOS>BOND
     1     1    25    1
     2     2    25    1
     3     3    25    1
     4     4    11    1
     5     4    19    1
     6     5    17    1
     7     5    43    1
     8     6    23    1
     9     6    25    1
    10     7    10    1
    11     7    15    1
    12     7    22    1
    13     8     9    1
    14     8    11    1
    15     8    12    1
    16     8    13    1
    17     9    10    1
    18     9    18    1
    19     9    26    1
    20    10    14    1
    21    10    27    1
    22    11    17    1
    23    11    28    1
    24    12    15    1
    25    12    29    1
    26    12    30    1
    27    13    16   ar
    28    13    19   ar
    29    14    16    1
    30    14    31    1
    31    14    32    1
    32    15    33    1
    33    15    34    1
    34    16    21   ar
    35    17    20    1
    36    17    35    1
    37    18    20    2
    38    18    36    1
    39    19    23   ar
    40    20    37    1
    41    21    24   ar
    42    21    38    1
    43    22    39    1
    44    22    40    1
    45    22    41    1
    46    23    24   ar
    47    24    42    1
@<TRIPOS>MOLECULE
133562483
 53 57 0 0 0
SMALL
GASTEIGER

@<TRIPOS>ATOM
      1 O           1.7270    1.2576    1.2161 O.3     1  UNL1       -0.4761
      2 O           1.6156    4.0438    0.9629 O.2     1  UNL1       -0.2887
      3 O           3.8208    0.0259   -0.4073 O.3     1  UNL1       -0.3911
      4 O          -4.5737   -2.0250    0.5187 O.3     1  UNL1       -0.4505
      5 O          -5.1546   -0.3694   -0.9463 O.2     1  UNL1       -0.2262
      6 O           5.5823   -1.3149    0.0363 O.3     1  UNL1       -0.4338
      7 O           3.5672   -1.7710    1.0583 O.2     1  UNL1       -0.2025
      8 N          -3.0666   -0.3304    0.0866 N.am    1  UNL1       -0.2635
      9 C          -0.6382    1.1012    0.7559 C.3     1  UNL1        0.0531
     10 C          -1.8404    1.8195    0.1433 C.3     1  UNL1        0.0102
     11 C          -2.5568    0.7787   -0.7623 C.3     1  UNL1        0.0403
     12 C           0.4579    1.9696    1.3818 C.3     1  UNL1        0.1720
     13 C          -1.1617    0.0077    1.7086 C.3     1  UNL1       -0.0228
     14 C           0.2075    0.4901   -0.3071 C.ar    1  UNL1        0.0120
     15 C          -1.6657    0.2142   -1.9147 C.3     1  UNL1       -0.0079
     16 C          -2.1247   -0.9700    1.0209 C.3     1  UNL1        0.0191
     17 C          -0.2260    0.0084   -1.5267 C.ar    1  UNL1       -0.0380
     18 C          -1.4717    3.1058   -0.5385 C.2     1  UNL1       -0.0748
     19 C           1.5391    0.5460    0.0532 C.ar    1  UNL1        0.1679
     20 C           0.6412    3.3337    0.7136 C.2     1  UNL1        0.1969
     21 C          -0.3604    3.8035   -0.2781 C.2     1  UNL1       -0.0190
     22 C           0.7432   -0.5441   -2.3643 C.ar    1  UNL1       -0.0545
     23 C           2.5104   -0.0049   -0.7506 C.ar    1  UNL1        0.1768
     24 C          -4.3363   -0.8677   -0.1755 C.2     1  UNL1        0.4031
     25 C           2.0979   -0.5680   -1.9669 C.ar    1  UNL1       -0.0152
     26 C          -5.8477   -2.6419    0.3006 C.3     1  UNL1        0.0913
     27 C           4.2644   -1.0985    0.3092 C.2     1  UNL1        0.5157
     28 C          -5.9375   -3.8983    1.1402 C.3     1  UNL1       -0.0305
     29 C           6.1747   -2.4359    0.7004 C.3     1  UNL1        0.0931
     30 C           6.0131   -3.6654   -0.1680 C.3     1  UNL1       -0.0305
     31 H          -2.5385    2.1057    0.9442 H       1  UNL1        0.0371
     32 H          -3.4249    1.2572   -1.2327 H       1  UNL1        0.0511
     33 H           0.2838    2.1420    2.4502 H       1  UNL1        0.0827
     34 H          -1.6939    0.4938    2.5375 H       1  UNL1        0.0290
     35 H          -0.3423   -0.5632    2.1637 H       1  UNL1        0.0290
     36 H          -1.6777    0.9386   -2.7392 H       1  UNL1        0.0331
     37 H          -2.0843   -0.7262   -2.2923 H       1  UNL1        0.0331
     38 H          -1.5641   -1.7139    0.4426 H       1  UNL1        0.0466
     39 H          -2.6735   -1.5249    1.7890 H       1  UNL1        0.0466
     40 H          -2.1830    3.5161   -1.2508 H       1  UNL1        0.0577
     41 H          -0.1634    4.7439   -0.7806 H       1  UNL1        0.0650
     42 H           0.4670   -0.9396   -3.3381 H       1  UNL1        0.0622
     43 H           2.8351   -1.0010   -2.6396 H       1  UNL1        0.0656
     44 H          -6.6438   -1.9465    0.5889 H       1  UNL1        0.0695
     45 H          -5.9525   -2.8972   -0.7598 H       1  UNL1        0.0695
     46 H          -5.1360   -4.5961    0.8763 H       1  UNL1        0.0262
     47 H          -5.8155   -3.6613    2.2023 H       1  UNL1        0.0262
     48 H          -6.9007   -4.3962    0.9976 H       1  UNL1        0.0262
     49 H           7.2382   -2.2103    0.8296 H       1  UNL1        0.0696
     50 H           5.7531   -2.5888    1.7003 H       1  UNL1        0.0696
     51 H           4.9552   -3.9053   -0.3162 H       1  UNL1        0.0262
     52 H           6.4431   -3.4967   -1.1609 H       1  UNL1        0.0262
     53 H           6.5060   -4.5294    0.2867 H       1  UNL1        0.0262
@<TRIPOS>BOND
     1     1    12    1
     2     1    19    1
     3     2    20    2
     4     3    23    1
     5     3    27    1
     6     4    24    1
     7     4    26    1
     8     5    24    2
     9     6    27    1
    10     6    29    1
    11     7    27    2
    12     8    11    1
    13     8    16    1
    14     8    24   am
    15     9    10    1
    16     9    12    1
    17     9    13    1
    18     9    14    1
    19    10    11    1
    20    10    18    1
    21    10    31    1
    22    11    15    1
    23    11    32    1
    24    12    20    1
    25    12    33    1
    26    13    16    1
    27    13    34    1
    28    13    35    1
    29    14    17   ar
    30    14    19   ar
    31    15    17    1
    32    15    36    1
    33    15    37    1
    34    16    38    1
    35    16    39    1
    36    17    22   ar
    37    18    21    2
    38    18    40    1
    39    19    23   ar
    40    20    21    1
    41    21    41    1
    42    22    25   ar
    43    22    42    1
    44    23    25   ar
    45    25    43    1
    46    26    28    1
    47    26    44    1
    48    26    45    1
    49    28    46    1
    50    28    47    1
    51    28    48    1
    52    29    30    1
    53    29    49    1
    54    29    50    1
    55    30    51    1
    56    30    52    1
    57    30    53    1
@<TRIPOS>MOLECULE
165361997
 64 68 0 0 0
SMALL
GASTEIGER

@<TRIPOS>ATOM
      1 SI         -2.2644    4.0709   -0.1103 Si      1  UNL1        0.0000
      2 SI          5.0441    0.5123    0.2575 Si      1  UNL1        0.0000
      3 O           0.6515    0.6795    1.2758 O.3     1  UNL1        0.0000
      4 O          -2.1511    2.5322    0.5377 O.3     1  UNL1        0.0000
      5 O           3.3672    0.5515    0.2259 O.3     1  UNL1        0.0000
      6 N          -2.7136   -3.5209    0.5109 N.3     1  UNL1        0.0000
      7 C          -1.1312   -0.8721    0.7843 C.3     1  UNL1        0.0000
      8 C          -2.2338   -1.1854   -0.2070 C.3     1  UNL1        0.0000
      9 C          -0.8133    0.5990    1.0985 C.3     1  UNL1        0.0000
     10 C          -1.9328   -2.7168   -0.4338 C.3     1  UNL1        0.0000
     11 C          -1.4114   -1.7906    2.0479 C.3     1  UNL1        0.0000
     12 C           0.1686   -1.1733    0.0349 C.ar    1  UNL1        0.0000
     13 C          -0.8508   -2.9276   -1.5198 C.3     1  UNL1        0.0000
     14 C          -2.6389   -2.8232    1.8536 C.3     1  UNL1        0.0000
     15 C          -1.2202    1.6017   -0.0223 C.3     1  UNL1        0.0000
     16 C           0.3521   -2.0793   -1.0396 C.ar    1  UNL1        0.0000
     17 C          -2.2754   -0.2460   -1.3765 C.2     1  UNL1        0.0000
     18 C           1.1373   -0.2734    0.4148 C.ar    1  UNL1        0.0000
     19 C          -1.8331    1.0157   -1.2701 C.2     1  UNL1        0.0000
     20 C           1.6141   -2.1244   -1.6246 C.ar    1  UNL1        0.0000
     21 C          -4.0791   -3.7501    0.0687 C.3     1  UNL1        0.0000
     22 C           2.3957   -0.3195   -0.1448 C.ar    1  UNL1        0.0000
     23 C           2.6315   -1.2623   -1.1611 C.ar    1  UNL1        0.0000
     24 C          -0.5681    4.7521   -0.5540 C.3     1  UNL1        0.0000
     25 C          -3.3386    4.0870   -1.6546 C.3     1  UNL1        0.0000
     26 C          -3.0452    5.2306    1.1532 C.3     1  UNL1        0.0000
     27 C           5.7524    2.1037    0.9651 C.3     1  UNL1        0.0000
     28 C           5.6314   -0.9094    1.3512 C.3     1  UNL1        0.0000
     29 C           5.7548    0.2380   -1.4615 C.3     1  UNL1        0.0000
     30 H          -3.2208   -1.0406    0.2522 H       1  UNL1        0.0000
     31 H          -1.2575    0.9053    2.0529 H       1  UNL1        0.0000
     32 H          -1.1304   -3.0500    0.2423 H       1  UNL1        0.0000
     33 H          -1.6595   -1.1682    2.9158 H       1  UNL1        0.0000
     34 H          -0.5111   -2.3613    2.3097 H       1  UNL1        0.0000
     35 H          -1.1947   -2.5972   -2.5045 H       1  UNL1        0.0000
     36 H          -0.5625   -3.9835   -1.5898 H       1  UNL1        0.0000
     37 H          -2.5751   -3.5883    2.6357 H       1  UNL1        0.0000
     38 H          -3.5646   -2.2621    2.0395 H       1  UNL1        0.0000
     39 H          -0.3041    2.1239   -0.3281 H       1  UNL1        0.0000
     40 H          -2.7208   -0.5854   -2.3062 H       1  UNL1        0.0000
     41 H          -1.8888    1.6408   -2.1555 H       1  UNL1        0.0000
     42 H           1.8203   -2.8080   -2.4430 H       1  UNL1        0.0000
     43 H          -4.6508   -2.8245   -0.0552 H       1  UNL1        0.0000
     44 H          -4.6085   -4.3842    0.7881 H       1  UNL1        0.0000
     45 H          -4.0827   -4.2829   -0.8884 H       1  UNL1        0.0000
     46 H           3.5896   -1.3361   -1.6609 H       1  UNL1        0.0000
     47 H          -0.6450    5.8057   -0.8394 H       1  UNL1        0.0000
     48 H           0.1125    4.6780    0.2993 H       1  UNL1        0.0000
     49 H          -0.1316    4.2070   -1.3960 H       1  UNL1        0.0000
     50 H          -3.6219    5.1138   -1.9059 H       1  UNL1        0.0000
     51 H          -2.8105    3.6700   -2.5156 H       1  UNL1        0.0000
     52 H          -4.2541    3.5107   -1.4926 H       1  UNL1        0.0000
     53 H          -4.0476    4.8846    1.4216 H       1  UNL1        0.0000
     54 H          -2.4384    5.2695    2.0625 H       1  UNL1        0.0000
     55 H          -3.1259    6.2433    0.7476 H       1  UNL1        0.0000
     56 H           5.3836    2.2693    1.9816 H       1  UNL1        0.0000
     57 H           5.4608    2.9599    0.3499 H       1  UNL1        0.0000
     58 H           6.8450    2.0593    0.9980 H       1  UNL1        0.0000
     59 H           5.2526   -0.7880    2.3701 H       1  UNL1        0.0000
     60 H           6.7243   -0.9375    1.3885 H       1  UNL1        0.0000
     61 H           5.2739   -1.8667    0.9610 H       1  UNL1        0.0000
     62 H           5.2085    0.8261   -2.2047 H       1  UNL1        0.0000
     63 H           5.7201   -0.8156   -1.7505 H       1  UNL1        0.0000
     64 H           6.8039    0.5493   -1.4874 H       1  UNL1        0.0000
@<TRIPOS>BOND
     1     1     4    1
     2     1    24    1
     3     1    25    1
     4     1    26    1
     5     2     5    1
     6     2    27    1
     7     2    28    1
     8     2    29    1
     9     3     9    1
    10     3    18    1
    11     4    15    1
    12     5    22    1
    13     6    10    1
    14     6    14    1
    15     6    21    1
    16     7     8    1
    17     7     9    1
    18     7    11    1
    19     7    12    1
    20     8    10    1
    21     8    17    1
    22     8    30    1
    23     9    15    1
    24     9    31    1
    25    10    13    1
    26    10    32    1
    27    11    14    1
    28    11    33    1
    29    11    34    1
    30    12    16   ar
    31    12    18   ar
    32    13    16    1
    33    13    35    1
    34    13    36    1
    35    14    37    1
    36    14    38    1
    37    15    19    1
    38    15    39    1
    39    16    20   ar
    40    17    19    2
    41    17    40    1
    42    18    22   ar
    43    19    41    1
    44    20    23   ar
    45    20    42    1
    46    21    43    1
    47    21    44    1
    48    21    45    1
    49    22    23   ar
    50    23    46    1
    51    24    47    1
    52    24    48    1
    53    24    49    1
    54    25    50    1
    55    25    51    1
    56    25    52    1
    57    26    53    1
    58    26    54    1
    59    26    55    1
    60    27    56    1
    61    27    57    1
    62    27    58    1
    63    28    59    1
    64    28    60    1
    65    28    61    1
    66    29    62    1
    67    29    63    1
    68    29    64    1
@<TRIPOS>MOLECULE
634730
 53 58 0 0 0
SMALL
GASTEIGER

@<TRIPOS>ATOM
      1 F           5.8791    0.8863    2.2572 F       1  UNL1       -0.1659
      2 F           7.1553    0.9986    0.5071 F       1  UNL1       -0.1659
      3 F           6.7907   -0.9208    1.4621 F       1  UNL1       -0.1659
      4 O          -2.8069   -2.1339   -1.2988 O.3     1  UNL1       -0.4846
      5 O          -4.2876   -3.3201    1.4696 O.3     1  UNL1       -0.3841
      6 O           1.7000   -0.6241   -2.2285 O.3     1  UNL1       -0.4559
      7 N          -3.7886    2.7270    0.2523 N.3     1  UNL1       -0.3015
      8 C          -3.4181   -0.1335   -0.0898 C.3     1  UNL1        0.0479
      9 C          -3.5169    0.5294    1.2886 C.3     1  UNL1        0.0064
     10 C          -2.8914    1.9545    1.1466 C.3     1  UNL1        0.0213
     11 C          -3.6413   -1.6566   -0.1743 C.3     1  UNL1        0.1397
     12 C          -4.2913    0.6674   -1.0795 C.3     1  UNL1       -0.0263
     13 C          -2.0059   -0.1275   -0.5637 C.ar    1  UNL1        0.0082
     14 C          -1.3857    1.9125    0.7084 C.3     1  UNL1       -0.0109
     15 C          -3.9321    2.1645   -1.0949 C.3     1  UNL1       -0.0001
     16 C          -1.0486    0.8249   -0.2748 C.ar    1  UNL1       -0.0351
     17 C          -3.2176   -2.4501    1.0922 C.3     1  UNL1        0.1110
     18 C          -2.9310   -0.3107    2.3874 C.2     1  UNL1       -0.0799
     19 C          -1.7450   -1.2612   -1.3044 C.ar    1  UNL1        0.1287
     20 C          -2.8197   -1.6422    2.2952 C.2     1  UNL1       -0.0559
     21 C           0.2087    0.6482   -0.8529 C.ar    1  UNL1       -0.0156
     22 C          -3.4764    4.1515    0.2041 C.3     1  UNL1       -0.0124
     23 C          -0.5176   -1.4485   -1.8976 C.ar    1  UNL1        0.0227
     24 C           0.4634   -0.4719   -1.6735 C.ar    1  UNL1        0.1322
     25 C           2.7983   -0.4123   -1.4144 C.ar    1  UNL1        0.1285
     26 C           3.8567    0.3407   -1.8917 C.ar    1  UNL1       -0.0188
     27 C           2.8117   -0.9579   -0.1427 C.ar    1  UNL1       -0.0188
     28 C           4.9641    0.5548   -1.0712 C.ar    1  UNL1       -0.0466
     29 C           3.9193   -0.7437    0.6778 C.ar    1  UNL1       -0.0466
     30 C           4.9954    0.0127    0.2135 C.ar    1  UNL1        0.0550
     31 C           6.1791    0.2418    1.0908 C.3     1  UNL1        0.4174
     32 H          -4.5773    0.6485    1.5603 H       1  UNL1        0.0368
     33 H          -2.9308    2.4383    2.1325 H       1  UNL1        0.0472
     34 H          -4.6815   -1.8870   -0.4353 H       1  UNL1        0.0772
     35 H          -5.3452    0.5592   -0.7900 H       1  UNL1        0.0287
     36 H          -4.2086    0.2738   -2.1008 H       1  UNL1        0.0287
     37 H          -1.0587    2.8801    0.3150 H       1  UNL1        0.0329
     38 H          -0.7857    1.7273    1.6096 H       1  UNL1        0.0329
     39 H          -3.0178    2.3193   -1.6812 H       1  UNL1        0.0427
     40 H          -4.7313    2.6936   -1.6291 H       1  UNL1        0.0427
     41 H          -2.3737   -3.1058    0.8435 H       1  UNL1        0.0675
     42 H          -2.6428    0.1802    3.3125 H       1  UNL1        0.0573
     43 H          -2.4169   -2.1874    3.1452 H       1  UNL1        0.0596
     44 H           0.9786    1.3924   -0.6643 H       1  UNL1        0.0657
     45 H          -2.5464    4.3652   -0.3322 H       1  UNL1        0.0391
     46 H          -3.3994    4.5694    1.2138 H       1  UNL1        0.0391
     47 H          -4.2835    4.6981   -0.2968 H       1  UNL1        0.0391
     48 H          -0.3056   -2.3313   -2.4901 H       1  UNL1        0.0691
     49 H          -3.9840   -3.8605    2.2191 H       1  UNL1        0.2104
     50 H           3.8334    0.7639   -2.8914 H       1  UNL1        0.0654
     51 H           1.9972   -1.5699    0.2336 H       1  UNL1        0.0654
     52 H           5.7923    1.1469   -1.4506 H       1  UNL1        0.0624
     53 H           3.9369   -1.1742    1.6756 H       1  UNL1        0.0624
@<TRIPOS>BOND
     1     1    31    1
     2     2    31    1
     3     3    31    1
     4     4    11    1
     5     4    19    1
     6     5    17    1
     7     5    49    1
     8     6    24    1
     9     6    25    1
    10     7    10    1
    11     7    15    1
    12     7    22    1
    13     8     9    1
    14     8    11    1
    15     8    12    1
    16     8    13    1
    17     9    10    1
    18     9    18    1
    19     9    32    1
    20    10    14    1
    21    10    33    1
    22    11    17    1
    23    11    34    1
    24    12    15    1
    25    12    35    1
    26    12    36    1
    27    13    16   ar
    28    13    19   ar
    29    14    16    1
    30    14    37    1
    31    14    38    1
    32    15    39    1
    33    15    40    1
    34    16    21   ar
    35    17    20    1
    36    17    41    1
    37    18    20    2
    38    18    42    1
    39    19    23   ar
    40    20    43    1
    41    21    24   ar
    42    21    44    1
    43    22    45    1
    44    22    46    1
    45    22    47    1
    46    23    24   ar
    47    23    48    1
    48    25    26   ar
    49    25    27   ar
    50    26    28   ar
    51    26    50    1
    52    27    29   ar
    53    27    51    1
    54    28    30   ar
    55    28    52    1
    56    29    30   ar
    57    29    53    1
    58    30    31    1
@<TRIPOS>MOLECULE
9849121
 61 66 0 0 0
SMALL
GASTEIGER

@<TRIPOS>ATOM
      1 O           0.2650    0.6704    1.2775 O.3     1  UNL1       -0.4811
      2 O          -1.4792   -0.0973   -0.5120 O.3     1  UNL1       -0.3377
      3 O          -3.2967   -1.5823   -0.1609 O.3     1  UNL1       -0.3405
      4 O           0.2959    3.5698    1.4369 O.3     1  UNL1       -0.5033
      5 O          -4.4957   -0.4354   -2.5075 O.3     1  UNL1       -0.3841
      6 O          -5.2191    1.9267   -1.2600 O.3     1  UNL1       -0.3864
      7 O          -5.4052    0.9391    1.4772 O.3     1  UNL1       -0.3865
      8 O          -3.5871   -2.7978    2.2694 O.3     1  UNL1       -0.3924
      9 N           4.8863   -1.5761    0.0884 N.3     1  UNL1       -0.3015
     10 C           2.0894   -0.7036    0.4298 C.3     1  UNL1        0.0480
     11 C           2.5609   -1.3809   -0.8638 C.3     1  UNL1        0.0064
     12 C           0.5667   -0.6460    0.6951 C.3     1  UNL1        0.1402
     13 C           4.0733   -1.0274   -1.0287 C.3     1  UNL1        0.0213
     14 C           2.8850   -1.2730    1.6211 C.3     1  UNL1       -0.0263
     15 C           2.3254    0.7660    0.3015 C.ar    1  UNL1        0.0116
     16 C           4.3280    0.5146   -1.1559 C.3     1  UNL1       -0.0110
     17 C           4.4060   -1.1700    1.4177 C.3     1  UNL1       -0.0001
     18 C          -0.3111   -0.9128   -0.5558 C.3     1  UNL1        0.1175
     19 C           3.3732    1.3728   -0.3694 C.ar    1  UNL1       -0.0383
     20 C           1.6949   -0.9971   -2.0375 C.2     1  UNL1       -0.0799
     21 C           1.2849    1.4785    0.8532 C.ar    1  UNL1        0.1663
     22 C           0.3825   -0.7656   -1.8843 C.2     1  UNL1       -0.0556
     23 C           5.0461   -3.0274    0.0017 C.3     1  UNL1       -0.0124
     24 C           3.4121    2.7679   -0.3607 C.ar    1  UNL1       -0.0546
     25 C           1.3052    2.8557    0.8806 C.ar    1  UNL1        0.1588
     26 C           2.3929    3.5018    0.2788 C.ar    1  UNL1       -0.0162
     27 C          -2.5956   -0.7578   -1.0983 C.3     1  UNL1        0.1887
     28 C          -3.5373    0.2728   -1.7193 C.3     1  UNL1        0.1341
     29 C          -4.2498    1.0873   -0.6383 C.3     1  UNL1        0.1141
     30 C          -3.9065   -0.8585    0.9111 C.3     1  UNL1        0.1130
     31 C          -4.9188    0.1659    0.3833 C.3     1  UNL1        0.1119
     32 C          -4.5715   -1.8805    1.8290 C.3     1  UNL1        0.0730
     33 H           2.4572   -2.4702   -0.7717 H       1  UNL1        0.0368
     34 H           0.2799   -1.3761    1.4631 H       1  UNL1        0.0772
     35 H           4.4504   -1.4719   -1.9602 H       1  UNL1        0.0472
     36 H           2.6132   -2.3276    1.7594 H       1  UNL1        0.0287
     37 H           2.6205   -0.7585    2.5541 H       1  UNL1        0.0287
     38 H           4.2116    0.7846   -2.2142 H       1  UNL1        0.0329
     39 H           5.3620    0.7580   -0.8815 H       1  UNL1        0.0329
     40 H           4.7215   -0.1346    1.5954 H       1  UNL1        0.0427
     41 H           4.9156   -1.7433    2.2031 H       1  UNL1        0.0427
     42 H          -0.6059   -1.9712   -0.4883 H       1  UNL1        0.0679
     43 H           2.1377   -0.9474   -3.0273 H       1  UNL1        0.0573
     44 H          -0.2097   -0.5303   -2.7639 H       1  UNL1        0.0596
     45 H           4.1159   -3.5759    0.1789 H       1  UNL1        0.0391
     46 H           5.7827   -3.3707    0.7370 H       1  UNL1        0.0391
     47 H           5.4365   -3.3175   -0.9801 H       1  UNL1        0.0391
     48 H           4.2126    3.2986   -0.8689 H       1  UNL1        0.0622
     49 H           2.4393    4.5884    0.2687 H       1  UNL1        0.0655
     50 H          -2.2738   -1.4304   -1.9038 H       1  UNL1        0.0938
     51 H          -2.9896    0.9427   -2.3921 H       1  UNL1        0.0671
     52 H          -3.5390    1.7462   -0.1245 H       1  UNL1        0.0648
     53 H          -3.1148   -0.3592    1.4859 H       1  UNL1        0.0647
     54 H          -5.7786   -0.3382   -0.0750 H       1  UNL1        0.0647
     55 H          -0.3639    2.9459    1.7866 H       1  UNL1        0.2923
     56 H          -5.3449   -2.4486    1.3014 H       1  UNL1        0.0584
     57 H          -5.0197   -1.4063    2.7068 H       1  UNL1        0.0584
     58 H          -5.1130    0.2217   -2.8722 H       1  UNL1        0.2101
     59 H          -4.7498    2.5004   -1.8895 H       1  UNL1        0.2100
     60 H          -6.0153    1.6039    1.1144 H       1  UNL1        0.2100
     61 H          -3.1923   -3.2076    1.4807 H       1  UNL1        0.2095
@<TRIPOS>BOND
     1     1    12    1
     2     1    21    1
     3     2    18    1
     4     2    27    1
     5     3    27    1
     6     3    30    1
     7     4    25    1
     8     4    55    1
     9     5    28    1
    10     5    58    1
    11     6    29    1
    12     6    59    1
    13     7    31    1
    14     7    60    1
    15     8    32    1
    16     8    61    1
    17     9    13    1
    18     9    17    1
    19     9    23    1
    20    10    11    1
    21    10    12    1
    22    10    14    1
    23    10    15    1
    24    11    13    1
    25    11    20    1
    26    11    33    1
    27    12    18    1
    28    12    34    1
    29    13    16    1
    30    13    35    1
    31    14    17    1
    32    14    36    1
    33    14    37    1
    34    15    19   ar
    35    15    21   ar
    36    16    19    1
    37    16    38    1
    38    16    39    1
    39    17    40    1
    40    17    41    1
    41    18    22    1
    42    18    42    1
    43    19    24   ar
    44    20    22    2
    45    20    43    1
    46    21    25   ar
    47    22    44    1
    48    23    45    1
    49    23    46    1
    50    23    47    1
    51    24    26   ar
    52    24    48    1
    53    25    26   ar
    54    26    49    1
    55    27    28    1
    56    27    50    1
    57    28    29    1
    58    28    51    1
    59    29    31    1
    60    29    52    1
    61    30    31    1
    62    30    32    1
    63    30    53    1
    64    31    54    1
    65    32    56    1
    66    32    57    1
@<TRIPOS>MOLECULE
124037290
 53 57 0 0 0
SMALL
GASTEIGER

@<TRIPOS>ATOM
      1 O           0.8542    0.2259   -1.9846 O.3     1  UNL1       -0.4813
      2 O          -2.5862   -2.3290   -0.3106 O.3     1  UNL1       -0.3860
      3 O           1.9479   -1.2638    0.0002 O.3     1  UNL1       -0.3706
      4 O           2.4209    2.6266   -1.4021 O.3     1  UNL1       -0.5033
      5 O           4.4947   -0.1626    0.3496 O.3     1  UNL1       -0.3807
      6 N          -3.8103    0.0842    0.2695 N.3     1  UNL1       -0.2993
      7 C          -1.1562   -0.4118   -0.7997 C.3     1  UNL1        0.0701
      8 C          -1.7769   -1.2995    0.2884 C.3     1  UNL1        0.0951
      9 C           0.0640   -0.9484   -1.5771 C.3     1  UNL1        0.1387
     10 C          -2.6975   -0.3685    1.1468 C.3     1  UNL1        0.0438
     11 C          -2.2772    0.1296   -1.7228 C.3     1  UNL1       -0.0242
     12 C          -0.4669    0.7605   -0.1939 C.ar    1  UNL1        0.0137
     13 C          -0.7143   -2.0672    1.0876 C.3     1  UNL1       -0.0191
     14 C           0.9751   -1.9391   -0.8004 C.3     1  UNL1        0.0965
     15 C          -1.8988    0.7936    1.8348 C.3     1  UNL1       -0.0089
     16 C           0.1988   -2.8618    0.1382 C.3     1  UNL1       -0.0204
     17 C          -3.3936    0.8318   -0.9228 C.3     1  UNL1        0.0000
     18 C          -0.8126    1.3949    0.9830 C.ar    1  UNL1       -0.0382
     19 C           0.6133    1.1309   -0.9718 C.ar    1  UNL1        0.1664
     20 C          -4.8778    0.7727    0.9868 C.3     1  UNL1       -0.0124
     21 C          -0.0565    2.5126    1.3353 C.ar    1  UNL1       -0.0546
     22 C           1.3605    2.2408   -0.6519 C.ar    1  UNL1        0.1588
     23 C           1.0091    2.9407    0.5121 C.ar    1  UNL1       -0.0162
     24 C           3.0765   -2.0881    0.2411 C.3     1  UNL1        0.0715
     25 C           4.0841   -1.3171    1.0720 C.3     1  UNL1        0.0707
     26 C           5.4258    0.6122    1.0922 C.3     1  UNL1        0.0365
     27 H          -0.2832   -1.4512   -2.4889 H       1  UNL1        0.0769
     28 H          -3.1532   -0.9805    1.9371 H       1  UNL1        0.0494
     29 H          -2.7138   -0.7035   -2.2891 H       1  UNL1        0.0288
     30 H          -1.8860    0.8319   -2.4705 H       1  UNL1        0.0288
     31 H          -1.2020   -2.7779    1.7668 H       1  UNL1        0.0294
     32 H          -0.1073   -1.4020    1.7107 H       1  UNL1        0.0294
     33 H           1.5021   -2.5369   -1.5561 H       1  UNL1        0.0633
     34 H          -1.4169    0.3805    2.7308 H       1  UNL1        0.0329
     35 H          -2.5707    1.5831    2.1857 H       1  UNL1        0.0329
     36 H           0.8516   -3.4906    0.7488 H       1  UNL1        0.0292
     37 H          -0.4042   -3.5540   -0.4621 H       1  UNL1        0.0292
     38 H          -3.0695    1.8441   -0.6510 H       1  UNL1        0.0427
     39 H          -4.2532    0.9576   -1.5931 H       1  UNL1        0.0427
     40 H          -3.0626   -2.7866    0.4032 H       1  UNL1        0.2103
     41 H          -5.2049    0.1905    1.8551 H       1  UNL1        0.0391
     42 H          -5.7557    0.8847    0.3404 H       1  UNL1        0.0391
     43 H          -4.5855    1.7710    1.3275 H       1  UNL1        0.0391
     44 H          -0.2726    3.0555    2.2516 H       1  UNL1        0.0622
     45 H           1.5798    3.8161    0.8149 H       1  UNL1        0.0655
     46 H           2.8123   -3.0018    0.7784 H       1  UNL1        0.0583
     47 H           3.5362   -2.3553   -0.7180 H       1  UNL1        0.0583
     48 H           2.8177    3.4187   -1.0006 H       1  UNL1        0.2923
     49 H           4.9534   -1.9481    1.2873 H       1  UNL1        0.0582
     50 H           3.6216   -1.0009    2.0143 H       1  UNL1        0.0582
     51 H           5.7078    1.4803    0.4905 H       1  UNL1        0.0524
     52 H           6.3261    0.0286    1.3073 H       1  UNL1        0.0524
     53 H           4.9735    0.9661    2.0238 H       1  UNL1        0.0524
@<TRIPOS>BOND
     1     1     9    1
     2     1    19    1
     3     2     8    1
     4     2    40    1
     5     3    14    1
     6     3    24    1
     7     4    22    1
     8     4    48    1
     9     5    25    1
    10     5    26    1
    11     6    10    1
    12     6    17    1
    13     6    20    1
    14     7     8    1
    15     7     9    1
    16     7    11    1
    17     7    12    1
    18     8    10    1
    19     8    13    1
    20     9    14    1
    21     9    27    1
    22    10    15    1
    23    10    28    1
    24    11    17    1
    25    11    29    1
    26    11    30    1
    27    12    18   ar
    28    12    19   ar
    29    13    16    1
    30    13    31    1
    31    13    32    1
    32    14    16    1
    33    14    33    1
    34    15    18    1
    35    15    34    1
    36    15    35    1
    37    16    36    1
    38    16    37    1
    39    17    38    1
    40    17    39    1
    41    18    21   ar
    42    19    22   ar
    43    20    41    1
    44    20    42    1
    45    20    43    1
    46    21    23   ar
    47    21    44    1
    48    22    23   ar
    49    23    45    1
    50    24    25    1
    51    24    46    1
    52    24    47    1
    53    25    49    1
    54    25    50    1
    55    26    51    1
    56    26    52    1
    57    26    53    1
@<TRIPOS>MOLECULE
129780009
 57 62 0 0 0
SMALL
GASTEIGER

@<TRIPOS>ATOM
      1 O           1.1250   -1.7099    1.1487 O.2     1  UNL1       -0.4861
      2 O           1.9987   -3.8903   -0.0362 O.3     1  UNL1       -0.3841
      3 O          -0.9796   -1.1717   -1.0178 O.3     1  UNL1       -0.3802
      4 O          -7.4752    1.6764   -0.2265 O.co2   1  UNL1       -0.5760
      5 O          -7.6931   -0.4040   -0.8924 O.2     1  UNL1        0.0414
      6 N           4.7977    1.9762    0.3056 N.3     1  UNL1       -0.3015
      7 N          -7.0115    0.5220   -0.3902 N.pl3   1  UNL1        0.0796
      8 C           3.0682   -0.3367    0.6338 C.3     1  UNL1        0.0476
      9 C           4.1483   -0.2572   -0.4600 C.3     1  UNL1        0.0063
     10 C           2.5838   -1.7606    1.0188 C.3     1  UNL1        0.1394
     11 C           4.2697    1.2423   -0.8689 C.3     1  UNL1        0.0213
     12 C           1.7883    0.2134    0.1086 C.2     1  UNL1        0.0063
     13 C           3.5445    0.4755    1.8553 C.3     1  UNL1       -0.0263
     14 C           2.9347    1.8014   -1.4577 C.3     1  UNL1       -0.0114
     15 C           1.6684    1.3117   -0.8022 C.2     1  UNL1       -0.0426
     16 C           0.7727   -0.5644    0.4542 C.2     1  UNL1        0.1343
     17 C           3.9342    1.9167    1.4896 C.3     1  UNL1       -0.0001
     18 C           2.9916   -2.8709    0.0195 C.3     1  UNL1        0.1110
     19 C           3.8538   -1.1988   -1.6006 C.2     1  UNL1       -0.0799
     20 C          -0.6453   -0.2894    0.0604 C.3     1  UNL1        0.1302
     21 C           3.2995   -2.3985   -1.3730 C.2     1  UNL1       -0.0559
     22 C          -0.8117    1.1746   -0.4617 C.3     1  UNL1        0.0022
     23 C           0.4377    1.7814   -1.0740 C.2     1  UNL1       -0.0772
     24 C           5.1917    3.3485    0.0041 C.3     1  UNL1       -0.0124
     25 C          -1.6312   -0.5506    1.2014 C.3     1  UNL1        0.0087
     26 C          -3.0464   -0.2679    0.7824 C.ar    1  UNL1       -0.0438
     27 C          -3.5835    1.0079    0.9539 C.ar    1  UNL1       -0.0521
     28 C          -3.8230   -1.2819    0.2218 C.ar    1  UNL1       -0.0521
     29 C          -4.8972    1.2697    0.5653 C.ar    1  UNL1        0.0158
     30 C          -5.1368   -1.0203   -0.1668 C.ar    1  UNL1        0.0158
     31 C          -5.6739    0.2555    0.0049 C.ar    1  UNL1        0.2732
     32 H           5.1183   -0.5773   -0.0495 H       1  UNL1        0.0368
     33 H           2.9538   -2.0483    2.0111 H       1  UNL1        0.0771
     34 H           5.0302    1.3086   -1.6596 H       1  UNL1        0.0472
     35 H           4.4172   -0.0253    2.2961 H       1  UNL1        0.0287
     36 H           2.7749    0.5018    2.6376 H       1  UNL1        0.0287
     37 H           2.8930    1.4867   -2.5104 H       1  UNL1        0.0329
     38 H           2.9445    2.8964   -1.4828 H       1  UNL1        0.0329
     39 H           4.4614    2.3481    2.3498 H       1  UNL1        0.0427
     40 H           3.0311    2.5231    1.3485 H       1  UNL1        0.0427
     41 H           3.9070   -3.3447    0.3977 H       1  UNL1        0.0675
     42 H           4.1348   -0.9176   -2.6105 H       1  UNL1        0.0573
     43 H           3.1433   -3.0757   -2.2075 H       1  UNL1        0.0596
     44 H          -1.0713    1.8560    0.3560 H       1  UNL1        0.0340
     45 H          -1.6029    1.2181   -1.2204 H       1  UNL1        0.0340
     46 H           0.3088    2.6106   -1.7636 H       1  UNL1        0.0576
     47 H           5.8565    3.3822   -0.8659 H       1  UNL1        0.0391
     48 H           5.7567    3.7718    0.8423 H       1  UNL1        0.0391
     49 H           4.3365    4.0046   -0.1864 H       1  UNL1        0.0391
     50 H          -1.3790    0.0533    2.0835 H       1  UNL1        0.0345
     51 H          -1.5717   -1.5978    1.5290 H       1  UNL1        0.0345
     52 H           2.3363   -4.6079   -0.5992 H       1  UNL1        0.2104
     53 H          -0.3871   -0.9778   -1.7645 H       1  UNL1        0.2108
     54 H          -3.0073    1.8044    1.4156 H       1  UNL1        0.0622
     55 H          -3.4179   -2.2810    0.0841 H       1  UNL1        0.0622
     56 H          -5.2845    2.2735    0.7201 H       1  UNL1        0.0685
     57 H          -5.7124   -1.8346   -0.5994 H       1  UNL1        0.0685
@<TRIPOS>UNITY_ATOM_ATTR
4 1
charge -1
7 1
charge 1
@<TRIPOS>BOND
     1     1    10    1
     2     1    16    1
     3     2    18    1
     4     2    52    1
     5     3    20    1
     6     3    53    1
     7     4     7    1
     8     5     7    2
     9     6    11    1
    10     6    17    1
    11     6    24    1
    12     7    31    1
    13     8     9    1
    14     8    10    1
    15     8    12    1
    16     8    13    1
    17     9    11    1
    18     9    19    1
    19     9    32    1
    20    10    18    1
    21    10    33    1
    22    11    14    1
    23    11    34    1
    24    12    15    1
    25    12    16    2
    26    13    17    1
    27    13    35    1
    28    13    36    1
    29    14    15    1
    30    14    37    1
    31    14    38    1
    32    15    23    2
    33    16    20    1
    34    17    39    1
    35    17    40    1
    36    18    21    1
    37    18    41    1
    38    19    21    2
    39    19    42    1
    40    20    22    1
    41    20    25    1
    42    21    43    1
    43    22    23    1
    44    22    44    1
    45    22    45    1
    46    23    46    1
    47    24    47    1
    48    24    48    1
    49    24    49    1
    50    25    26    1
    51    25    50    1
    52    25    51    1
    53    26    27   ar
    54    26    28   ar
    55    27    29   ar
    56    27    54    1
    57    28    30   ar
    58    28    55    1
    59    29    31   ar
    60    29    56    1
    61    30    31   ar
    62    30    57    1
@<TRIPOS>MOLECULE
163285537
 41 45 0 0 0
SMALL
GASTEIGER

@<TRIPOS>ATOM
      1 O           2.0788    0.5928    1.2498 O.3     1  UNL1       -0.4811
      2 O          -3.7900    0.8611    0.6204 O.co2   1  UNL1       -0.7753
      3 O           2.8003    2.6373   -0.2273 O.3     1  UNL1       -0.3841
      4 O           3.8821   -1.6188    0.7107 O.3     1  UNL1       -0.5033
      5 N          -3.0589   -0.2752    0.3195 N.3     1  UNL1        0.2178
      6 C          -0.2686    0.6715    0.6062 C.3     1  UNL1        0.0553
      7 C          -1.1812    1.1881   -0.5159 C.3     1  UNL1        0.0338
      8 C          -2.1375    0.0103   -0.8908 C.3     1  UNL1       -0.0105
      9 C           0.9740    1.5212    0.9662 C.3     1  UNL1        0.1402
     10 C          -1.1137    0.3113    1.8463 C.3     1  UNL1        0.0014
     11 C           0.4565   -0.5343    0.1076 C.ar    1  UNL1        0.0120
     12 C          -2.2467   -0.6708    1.5361 C.3     1  UNL1       -0.0317
     13 C          -1.3702   -1.2417   -1.4274 C.3     1  UNL1        0.0164
     14 C          -0.0324   -1.4770   -0.7781 C.ar    1  UNL1       -0.0345
     15 C           1.3825    2.5573   -0.1139 C.3     1  UNL1        0.1110
     16 C          -0.3892    1.7400   -1.6728 C.2     1  UNL1       -0.0761
     17 C           1.7569   -0.5450    0.5599 C.ar    1  UNL1        0.1663
     18 C           0.7914    2.3474   -1.4824 C.2     1  UNL1       -0.0558
     19 C          -4.0668   -1.3489    0.0145 C.3     1  UNL1       -0.0436
     20 C           0.8119   -2.5387   -1.1082 C.ar    1  UNL1       -0.0544
     21 C           2.6055   -1.5865    0.2556 C.ar    1  UNL1        0.1588
     22 C           2.1153   -2.6014   -0.5759 C.ar    1  UNL1       -0.0162
     23 H          -1.7788    2.0290   -0.1386 H       1  UNL1        0.0408
     24 H          -2.8409    0.3427   -1.6667 H       1  UNL1        0.0859
     25 H           0.8053    2.0708    1.9014 H       1  UNL1        0.0772
     26 H          -1.5473    1.2336    2.2546 H       1  UNL1        0.0327
     27 H          -0.4897   -0.1156    2.6420 H       1  UNL1        0.0327
     28 H          -1.8633   -1.6792    1.3498 H       1  UNL1        0.0814
     29 H          -2.9515   -0.7224    2.3743 H       1  UNL1        0.0814
     30 H          -1.1766   -1.0716   -2.4951 H       1  UNL1        0.0368
     31 H          -1.9676   -2.1534   -1.3619 H       1  UNL1        0.0368
     32 H           1.0394    3.5444    0.2227 H       1  UNL1        0.0675
     33 H          -0.8068    1.6811   -2.6731 H       1  UNL1        0.0575
     34 H           1.3047    2.7728   -2.3404 H       1  UNL1        0.0596
     35 H          -4.5581   -1.0872   -0.9261 H       1  UNL1        0.0777
     36 H          -4.7919   -1.3582    0.8342 H       1  UNL1        0.0777
     37 H          -3.5635   -2.3145   -0.0458 H       1  UNL1        0.0777
     38 H           0.4809   -3.3094   -1.7992 H       1  UNL1        0.0622
     39 H           2.7532   -3.4373   -0.8542 H       1  UNL1        0.0655
     40 H           3.0128    3.3665   -0.8348 H       1  UNL1        0.2104
     41 H           4.3134   -2.4251    0.3792 H       1  UNL1        0.2923
@<TRIPOS>UNITY_ATOM_ATTR
2 1
charge -1
5 1
charge 1
@<TRIPOS>BOND
     1     1     9    1
     2     1    17    1
     3     2     5    1
     4     3    15    1
     5     3    40    1
     6     4    21    1
     7     4    41    1
     8     5     8    1
     9     5    12    1
    10     5    19    1
    11     6     7    1
    12     6     9    1
    13     6    10    1
    14     6    11    1
    15     7     8    1
    16     7    16    1
    17     7    23    1
    18     8    13    1
    19     8    24    1
    20     9    15    1
    21     9    25    1
    22    10    12    1
    23    10    26    1
    24    10    27    1
    25    11    14   ar
    26    11    17   ar
    27    12    28    1
    28    12    29    1
    29    13    14    1
    30    13    30    1
    31    13    31    1
    32    14    20   ar
    33    15    18    1
    34    15    32    1
    35    16    18    2
    36    16    33    1
    37    17    21   ar
    38    18    34    1
    39    19    35    1
    40    19    36    1
    41    19    37    1
    42    20    22   ar
    43    20    38    1
    44    21    22   ar
    45    22    39    1
@<TRIPOS>MOLECULE
5491901
 41 46 0 0 0
SMALL
GASTEIGER

@<TRIPOS>ATOM
      1 O           1.2378   -1.9926   -1.8455 O.3     1  UNL1       -0.3651
      2 O          -1.5180   -1.4150    1.0349 O.3     1  UNL1       -0.4813
      3 O           0.1122   -3.9498    0.4013 O.3     1  UNL1       -0.3854
      4 O          -4.2690   -0.3568    0.5540 O.3     1  UNL1       -0.5033
      5 N           2.0039    2.2794    0.5424 N.3     1  UNL1       -0.3017
      6 C           0.4447   -0.2086    0.4834 C.3     1  UNL1        0.0468
      7 C           1.7386   -0.0290   -0.2842 C.3     1  UNL1        0.0170
      8 C           2.1599   -1.1507   -1.1768 C.3     1  UNL1        0.0931
      9 C           1.7891   -2.5405   -0.6261 C.3     1  UNL1        0.1148
     10 C          -0.2472   -1.5631    0.3566 C.3     1  UNL1        0.1387
     11 C           1.8134    1.4538   -0.6962 C.3     1  UNL1        0.0203
     12 C           0.7621   -2.6894    0.5195 C.3     1  UNL1        0.1212
     13 C           0.7272    0.4251    1.8656 C.3     1  UNL1       -0.0265
     14 C          -0.7625    0.4717   -0.0378 C.ar    1  UNL1        0.0113
     15 C           0.5431    1.9851   -1.4634 C.3     1  UNL1       -0.0113
     16 C           1.1253    1.9233    1.6870 C.3     1  UNL1       -0.0002
     17 C          -0.7784    1.5379   -0.8996 C.ar    1  UNL1       -0.0383
     18 C          -1.8935   -0.2057    0.4259 C.ar    1  UNL1        0.1663
     19 C           3.4065    2.3346    0.9569 C.3     1  UNL1       -0.0125
     20 C          -2.0413    2.0202   -1.2294 C.ar    1  UNL1       -0.0546
     21 C          -3.1455    0.2661    0.1299 C.ar    1  UNL1        0.1588
     22 C          -3.2084    1.4040   -0.6983 C.ar    1  UNL1       -0.0162
     23 H           2.5519   -0.1582    0.4473 H       1  UNL1        0.0352
     24 H           3.1428   -1.0182   -1.6091 H       1  UNL1        0.0626
     25 H           2.5080   -3.3435   -0.6971 H       1  UNL1        0.0649
     26 H          -0.6027   -1.7578   -0.6763 H       1  UNL1        0.0769
     27 H           2.6671    1.6165   -1.3666 H       1  UNL1        0.0469
     28 H           1.2649   -2.6556    1.4911 H       1  UNL1        0.0657
     29 H           1.5410   -0.1128    2.3688 H       1  UNL1        0.0287
     30 H          -0.1354    0.3680    2.5414 H       1  UNL1        0.0287
     31 H           0.5989    1.6164   -2.4958 H       1  UNL1        0.0329
     32 H           0.5720    3.0808   -1.5095 H       1  UNL1        0.0329
     33 H           0.2040    2.5082    1.5702 H       1  UNL1        0.0427
     34 H           1.5493    2.2881    2.6318 H       1  UNL1        0.0427
     35 H          -0.5772   -3.9855    1.0863 H       1  UNL1        0.2101
     36 H           4.0466    2.6494    0.1252 H       1  UNL1        0.0391
     37 H           3.7792    1.3790    1.3384 H       1  UNL1        0.0391
     38 H           3.5394    3.0862    1.7434 H       1  UNL1        0.0391
     39 H          -2.1482    2.8616   -1.9087 H       1  UNL1        0.0622
     40 H          -4.1774    1.8110   -0.9825 H       1  UNL1        0.0655
     41 H          -5.0418    0.1307    0.2205 H       1  UNL1        0.2923
@<TRIPOS>BOND
     1     1     8    1
     2     1     9    1
     3     2    10    1
     4     2    18    1
     5     3    12    1
     6     3    35    1
     7     4    21    1
     8     4    41    1
     9     5    11    1
    10     5    16    1
    11     5    19    1
    12     6     7    1
    13     6    10    1
    14     6    13    1
    15     6    14    1
    16     7     8    1
    17     7    11    1
    18     7    23    1
    19     8     9    1
    20     8    24    1
    21     9    12    1
    22     9    25    1
    23    10    12    1
    24    10    26    1
    25    11    15    1
    26    11    27    1
    27    12    28    1
    28    13    16    1
    29    13    29    1
    30    13    30    1
    31    14    17   ar
    32    14    18   ar
    33    15    17    1
    34    15    31    1
    35    15    32    1
    36    16    33    1
    37    16    34    1
    38    17    20   ar
    39    18    21   ar
    40    19    36    1
    41    19    37    1
    42    19    38    1
    43    20    22   ar
    44    20    39    1
    45    21    22   ar
    46    22    40    1
@<TRIPOS>MOLECULE
67625510
 58 62 0 0 0
SMALL
GASTEIGER

@<TRIPOS>ATOM
      1 O          -0.1294   -1.1900    1.4180 O.2     1  UNL1       -0.4849
      2 O           1.0979   -2.7120   -0.2783 O.3     1  UNL1       -0.3736
      3 O          -2.9393   -1.3869    2.1919 O.3     1  UNL1       -0.3734
      4 O           3.8527   -0.7701   -0.8221 O.2     1  UNL1       -0.2939
      5 O          -3.0196   -3.1485    0.3170 O.2     1  UNL1       -0.2939
      6 N           0.8939    3.7791    0.0735 N.3     1  UNL1       -0.3015
      7 C           0.6869    0.9144    0.5259 C.3     1  UNL1        0.0483
      8 C           1.2808    1.5090   -0.7615 C.3     1  UNL1        0.0064
      9 C           1.0719   -0.5528    0.8609 C.3     1  UNL1        0.1491
     10 C           0.5329    2.8523   -1.0251 C.3     1  UNL1        0.0213
     11 C          -0.7817    0.7333    0.3690 C.2     1  UNL1        0.0068
     12 C           0.9842    1.8823    1.6914 C.3     1  UNL1       -0.0263
     13 C          -1.0007    2.6392   -1.2413 C.3     1  UNL1       -0.0114
     14 C           1.5974   -1.3796   -0.3453 C.3     1  UNL1        0.1792
     15 C          -1.6521    1.5965   -0.3681 C.2     1  UNL1       -0.0426
     16 C          -1.1617   -0.4174    0.9047 C.2     1  UNL1        0.1414
     17 C           0.5013    3.3135    1.4073 C.3     1  UNL1       -0.0001
     18 C           1.2321    0.5344   -1.9082 C.2     1  UNL1       -0.0792
     19 C          -2.5775   -0.8844    0.9153 C.3     1  UNL1        0.1837
     20 C           1.3678   -0.7845   -1.7076 C.2     1  UNL1       -0.0456
     21 C          -2.9779    1.3829   -0.2886 C.2     1  UNL1       -0.0768
     22 C          -3.5738    0.2440    0.5202 C.3     1  UNL1        0.0089
     23 C           3.0899   -1.5365   -0.2357 C.2     1  UNL1        0.1719
     24 C           0.4597    5.1526   -0.1590 C.3     1  UNL1       -0.0124
     25 C          -2.6662   -2.0302   -0.0539 C.2     1  UNL1        0.1722
     26 C           3.5795   -2.6822    0.6306 C.3     1  UNL1        0.0064
     27 C          -2.2974   -1.7186   -1.4926 C.3     1  UNL1        0.0064
     28 C           4.9340   -2.4039    1.2570 C.3     1  UNL1       -0.0585
     29 C          -2.3855   -2.9358   -2.3954 C.3     1  UNL1       -0.0585
     30 H           2.3463    1.7384   -0.6088 H       1  UNL1        0.0368
     31 H           1.8116   -0.5681    1.6717 H       1  UNL1        0.0779
     32 H           0.9381    3.2795   -1.9531 H       1  UNL1        0.0472
     33 H           2.0684    1.9034    1.8670 H       1  UNL1        0.0287
     34 H           0.5272    1.5311    2.6257 H       1  UNL1        0.0287
     35 H          -1.1343    2.3127   -2.2827 H       1  UNL1        0.0329
     36 H          -1.5435    3.5873   -1.1627 H       1  UNL1        0.0329
     37 H          -0.5859    3.3737    1.5404 H       1  UNL1        0.0427
     38 H           0.9397    3.9709    2.1686 H       1  UNL1        0.0427
     39 H           1.1303    0.9137   -2.9202 H       1  UNL1        0.0574
     40 H           1.3617   -1.4447   -2.5712 H       1  UNL1        0.0603
     41 H          -3.6662    2.0193   -0.8373 H       1  UNL1        0.0576
     42 H          -4.0207    0.6823    1.4227 H       1  UNL1        0.0344
     43 H          -4.4123   -0.1804   -0.0472 H       1  UNL1        0.0344
     44 H           0.7794    5.5018   -1.1468 H       1  UNL1        0.0391
     45 H           0.9240    5.8241    0.5722 H       1  UNL1        0.0391
     46 H          -0.6253    5.2745   -0.0815 H       1  UNL1        0.0391
     47 H           1.3144   -3.1735   -1.1066 H       1  UNL1        0.2113
     48 H          -3.8835   -1.6194    2.1693 H       1  UNL1        0.2113
     49 H           2.8689   -2.8544    1.4462 H       1  UNL1        0.0340
     50 H           3.6271   -3.5858    0.0141 H       1  UNL1        0.0340
     51 H          -2.9815   -0.9602   -1.8828 H       1  UNL1        0.0340
     52 H          -1.2799   -1.3386   -1.5474 H       1  UNL1        0.0340
     53 H           4.9061   -1.4892    1.8583 H       1  UNL1        0.0234
     54 H           5.2342   -3.2336    1.9042 H       1  UNL1        0.0234
     55 H           5.7034   -2.2750    0.4887 H       1  UNL1        0.0234
     56 H          -1.7041   -3.7240   -2.0582 H       1  UNL1        0.0234
     57 H          -2.1180   -2.6696   -3.4227 H       1  UNL1        0.0234
     58 H          -3.3996   -3.3488   -2.4021 H       1  UNL1        0.0234
@<TRIPOS>BOND
     1     1     9    1
     2     1    16    1
     3     2    14    1
     4     2    47    1
     5     3    19    1
     6     3    48    1
     7     4    23    2
     8     5    25    2
     9     6    10    1
    10     6    17    1
    11     6    24    1
    12     7     8    1
    13     7     9    1
    14     7    11    1
    15     7    12    1
    16     8    10    1
    17     8    18    1
    18     8    30    1
    19     9    14    1
    20     9    31    1
    21    10    13    1
    22    10    32    1
    23    11    15    1
    24    11    16    2
    25    12    17    1
    26    12    33    1
    27    12    34    1
    28    13    15    1
    29    13    35    1
    30    13    36    1
    31    14    20    1
    32    14    23    1
    33    15    21    2
    34    16    19    1
    35    17    37    1
    36    17    38    1
    37    18    20    2
    38    18    39    1
    39    19    22    1
    40    19    25    1
    41    20    40    1
    42    21    22    1
    43    21    41    1
    44    22    42    1
    45    22    43    1
    46    23    26    1
    47    24    44    1
    48    24    45    1
    49    24    46    1
    50    25    27    1
    51    26    28    1
    52    26    49    1
    53    26    50    1
    54    27    29    1
    55    27    51    1
    56    27    52    1
    57    28    53    1
    58    28    54    1
    59    28    55    1
    60    29    56    1
    61    29    57    1
    62    29    58    1
@<TRIPOS>MOLECULE
129676797
 52 56 0 0 0
SMALL
GASTEIGER

@<TRIPOS>ATOM
      1 O          -0.7816   -1.4470    0.8385 O.2     1  UNL1       -0.4849
      2 O           0.5659   -3.1888   -0.5196 O.3     1  UNL1       -0.3736
      3 O          -2.8218   -1.4841   -1.3897 O.3     1  UNL1       -0.3734
      4 O           3.0189   -2.2873    1.4832 O.2     1  UNL1       -0.2942
      5 O          -4.3367   -1.8394    0.6706 O.2     1  UNL1       -0.2942
      6 N           1.8566    3.0837    0.6115 N.3     1  UNL1       -0.3015
      7 C           0.7960    0.3771    0.5748 C.3     1  UNL1        0.0483
      8 C           1.9506    0.8267   -0.3354 C.3     1  UNL1        0.0064
      9 C           0.6566   -1.1501    0.8207 C.3     1  UNL1        0.1491
     10 C           1.7106    2.3332   -0.6581 C.3     1  UNL1        0.0213
     11 C          -0.5092    0.6198   -0.0982 C.2     1  UNL1        0.0068
     12 C           0.8725    1.1817    1.8904 C.3     1  UNL1       -0.0263
     13 C           0.3648    2.5636   -1.4187 C.3     1  UNL1       -0.0114
     14 C           1.3676   -2.0474   -0.2296 C.3     1  UNL1        0.1789
     15 C          -0.7969    1.7053   -0.9840 C.2     1  UNL1       -0.0426
     16 C           0.8965    2.6998    1.6512 C.3     1  UNL1       -0.0001
     17 C          -1.3323   -0.3956    0.1182 C.2     1  UNL1        0.1414
     18 C           2.0899   -0.0538   -1.5488 C.2     1  UNL1       -0.0792
     19 C          -2.7231   -0.4522   -0.4169 C.3     1  UNL1        0.1835
     20 C           1.8118   -1.3642   -1.4938 C.2     1  UNL1       -0.0456
     21 C          -2.0561    1.8456   -1.4352 C.2     1  UNL1       -0.0768
     22 C          -3.1768    0.8928   -1.0585 C.3     1  UNL1        0.0089
     23 C           1.8931    4.5311    0.4303 C.3     1  UNL1       -0.0124
     24 C           2.6256   -2.6192    0.3659 C.2     1  UNL1        0.1691
     25 C          -3.6440   -0.8236    0.7112 C.2     1  UNL1        0.1694
     26 C           3.3792   -3.6160   -0.4726 C.3     1  UNL1       -0.0027
     27 C          -3.6778    0.1084    1.8924 C.3     1  UNL1       -0.0027
     28 H           2.9055    0.7420    0.2055 H       1  UNL1        0.0368
     29 H           0.9781   -1.3918    1.8398 H       1  UNL1        0.0779
     30 H           2.5224    2.6628   -1.3216 H       1  UNL1        0.0472
     31 H           1.7853    0.8940    2.4297 H       1  UNL1        0.0287
     32 H           0.0327    0.9391    2.5544 H       1  UNL1        0.0287
     33 H           0.5533    2.3357   -2.4777 H       1  UNL1        0.0329
     34 H           0.0779    3.6204   -1.3963 H       1  UNL1        0.0329
     35 H          -0.1120    3.0546    1.4053 H       1  UNL1        0.0427
     36 H           1.1689    3.1827    2.5981 H       1  UNL1        0.0427
     37 H           2.4584    0.3764   -2.4749 H       1  UNL1        0.0574
     38 H           1.9426   -1.9625   -2.3920 H       1  UNL1        0.0603
     39 H          -2.3006    2.6549   -2.1176 H       1  UNL1        0.0576
     40 H          -3.8645    1.4520   -0.4160 H       1  UNL1        0.0344
     41 H          -3.7370    0.6826   -1.9794 H       1  UNL1        0.0344
     42 H           2.6308    4.8115   -0.3295 H       1  UNL1        0.0391
     43 H           2.2049    5.0202    1.3601 H       1  UNL1        0.0391
     44 H           0.9228    4.9485    0.1433 H       1  UNL1        0.0391
     45 H           0.2460   -3.5545    0.3231 H       1  UNL1        0.2113
     46 H          -3.7315   -1.4956   -1.7332 H       1  UNL1        0.2113
     47 H           3.9075   -3.1131   -1.2857 H       1  UNL1        0.0307
     48 H           2.7134   -4.3851   -0.8700 H       1  UNL1        0.0307
     49 H           4.1215   -4.1173    0.1569 H       1  UNL1        0.0307
     50 H          -2.6765    0.3928    2.2201 H       1  UNL1        0.0307
     51 H          -4.1582   -0.4070    2.7306 H       1  UNL1        0.0307
     52 H          -4.2655    0.9992    1.6635 H       1  UNL1        0.0307
@<TRIPOS>BOND
     1     1     9    1
     2     1    17    1
     3     2    14    1
     4     2    45    1
     5     3    19    1
     6     3    46    1
     7     4    24    2
     8     5    25    2
     9     6    10    1
    10     6    16    1
    11     6    23    1
    12     7     8    1
    13     7     9    1
    14     7    11    1
    15     7    12    1
    16     8    10    1
    17     8    18    1
    18     8    28    1
    19     9    14    1
    20     9    29    1
    21    10    13    1
    22    10    30    1
    23    11    15    1
    24    11    17    2
    25    12    16    1
    26    12    31    1
    27    12    32    1
    28    13    15    1
    29    13    33    1
    30    13    34    1
    31    14    20    1
    32    14    24    1
    33    15    21    2
    34    16    35    1
    35    16    36    1
    36    17    19    1
    37    18    20    2
    38    18    37    1
    39    19    22    1
    40    19    25    1
    41    20    38    1
    42    21    22    1
    43    21    39    1
    44    22    40    1
    45    22    41    1
    46    23    42    1
    47    23    43    1
    48    23    44    1
    49    24    26    1
    50    25    27    1
    51    26    47    1
    52    26    48    1
    53    26    49    1
    54    27    50    1
    55    27    51    1
    56    27    52    1
@<TRIPOS>MOLECULE
129687878
 44 48 0 0 0
SMALL
GASTEIGER

@<TRIPOS>ATOM
      1 O          -1.0593   -1.2501    0.9578 O.2     1  UNL1       -0.4813
      2 O          -0.7298   -3.4699   -0.3246 O.3     1  UNL1       -0.3841
      3 O          -3.3646    0.0174   -0.2466 O.2     1  UNL1       -0.2956
      4 N           3.4794    1.3182    0.7988 N.3     1  UNL1       -0.3015
      5 N          -4.0608    1.0904    0.3059 N.2     1  UNL1        0.3201
      6 N          -5.2457    0.7859    0.5307 N.2     1  UNL1        0.0289
      7 N          -6.3312    0.5016    0.7348 N.2     1  UNL1       -0.3249
      8 C           1.2225   -0.5138    0.7533 C.3     1  UNL1        0.0477
      9 C           2.5337   -0.7868   -0.0080 C.3     1  UNL1        0.0063
     10 C           3.1001    0.6013   -0.4425 C.3     1  UNL1        0.0210
     11 C           0.3186   -1.7301    1.0321 C.3     1  UNL1        0.1398
     12 C           0.3042    0.2819   -0.1121 C.2     1  UNL1        0.0074
     13 C           1.5623    0.2883    2.0281 C.3     1  UNL1       -0.0263
     14 C           2.1090    1.3699   -1.3813 C.3     1  UNL1       -0.0148
     15 C           0.6508    1.1359   -1.0794 C.2     1  UNL1       -0.0602
     16 C           2.3627    1.5658    1.7178 C.3     1  UNL1       -0.0001
     17 C           0.5299   -2.9484    0.0951 C.3     1  UNL1        0.1110
     18 C          -1.0268   -0.1575    0.1218 C.2     1  UNL1        0.1655
     19 C           2.3365   -1.7497   -1.1487 C.2     1  UNL1       -0.0799
     20 C          -0.4137    1.7876   -1.9249 C.3     1  UNL1       -0.0239
     21 C           1.4125   -2.7186   -1.1001 C.2     1  UNL1       -0.0559
     22 C          -2.0722    0.4399   -0.4615 C.2     1  UNL1        0.1840
     23 C          -1.8663    1.6068   -1.4012 C.3     1  UNL1        0.0157
     24 C           4.2484    2.5339    0.5547 C.3     1  UNL1       -0.0125
     25 H           3.2637   -1.2634    0.6638 H       1  UNL1        0.0368
     26 H           4.0242    0.4247   -1.0102 H       1  UNL1        0.0471
     27 H           0.4566   -2.0787    2.0638 H       1  UNL1        0.0772
     28 H           2.1552   -0.3464    2.7005 H       1  UNL1        0.0287
     29 H           0.6548    0.5618    2.5816 H       1  UNL1        0.0287
     30 H           2.2915    1.0281   -2.4090 H       1  UNL1        0.0325
     31 H           2.3171    2.4443   -1.3824 H       1  UNL1        0.0325
     32 H           2.7494    1.9558    2.6677 H       1  UNL1        0.0427
     33 H           1.6919    2.3372    1.3194 H       1  UNL1        0.0427
     34 H           1.0102   -3.7407    0.6840 H       1  UNL1        0.0675
     35 H           2.9916   -1.6814   -2.0120 H       1  UNL1        0.0573
     36 H          -0.2077    2.8608   -2.0170 H       1  UNL1        0.0314
     37 H          -0.3504    1.3666   -2.9365 H       1  UNL1        0.0314
     38 H           1.3432   -3.4153   -1.9310 H       1  UNL1        0.0596
     39 H          -2.5360    1.5095   -2.2645 H       1  UNL1        0.0349
     40 H          -2.1582    2.5281   -0.8805 H       1  UNL1        0.0349
     41 H           5.0969    2.3331   -0.1084 H       1  UNL1        0.0391
     42 H           4.6713    2.9081    1.4940 H       1  UNL1        0.0391
     43 H           3.6479    3.3372    0.1164 H       1  UNL1        0.0391
     44 H          -0.5633   -4.2772   -0.8408 H       1  UNL1        0.2104
@<TRIPOS>UNITY_ATOM_ATTR
6 1
charge 1
7 1
charge -1
@<TRIPOS>BOND
     1     1    11    1
     2     1    18    1
     3     2    17    1
     4     2    44    1
     5     3     5    1
     6     3    22    1
     7     4    10    1
     8     4    16    1
     9     4    24    1
    10     5     6    2
    11     6     7    2
    12     8     9    1
    13     8    11    1
    14     8    12    1
    15     8    13    1
    16     9    10    1
    17     9    19    1
    18     9    25    1
    19    10    14    1
    20    10    26    1
    21    11    17    1
    22    11    27    1
    23    12    15    2
    24    12    18    1
    25    13    16    1
    26    13    28    1
    27    13    29    1
    28    14    15    1
    29    14    30    1
    30    14    31    1
    31    15    20    1
    32    16    32    1
    33    16    33    1
    34    17    21    1
    35    17    34    1
    36    18    22    2
    37    19    21    2
    38    19    35    1
    39    20    23    1
    40    20    36    1
    41    20    37    1
    42    21    38    1
    43    22    23    1
    44    23    39    1
    45    23    40    1
    46    24    41    1
    47    24    42    1
    48    24    43    1
@<TRIPOS>MOLECULE
129780061
 57 62 0 0 0
SMALL
GASTEIGER

@<TRIPOS>ATOM
      1 F           5.1053    2.2970   -0.5160 F       1  UNL1       -0.1659
      2 F           4.8059    1.8632    1.5877 F       1  UNL1       -0.1659
      3 F           6.6121    1.1828    0.5866 F       1  UNL1       -0.1659
      4 O          -0.1928    0.8877    1.0026 O.2     1  UNL1       -0.4856
      5 O           0.4742    2.7596   -0.7062 O.3     1  UNL1       -0.3841
      6 O           1.0382   -1.6526    1.6174 O.3     1  UNL1       -0.3732
      7 O           0.6645   -1.0528   -1.8220 O.2     1  UNL1       -0.2885
      8 N          -5.4008    0.2466    0.5264 N.3     1  UNL1       -0.3015
      9 C          -2.5828    0.9567    0.5500 C.3     1  UNL1        0.0476
     10 C          -3.5159    1.3044   -0.6233 C.3     1  UNL1        0.0063
     11 C          -4.5813    0.1686   -0.7062 C.3     1  UNL1        0.0213
     12 C          -1.2886    1.8053    0.6760 C.3     1  UNL1        0.1394
     13 C          -1.9661   -0.3769    0.3102 C.2     1  UNL1        0.0068
     14 C          -3.4090    0.9470    1.8525 C.3     1  UNL1       -0.0263
     15 C          -3.9364   -1.2273   -0.9861 C.3     1  UNL1       -0.0114
     16 C          -2.6133   -1.4917   -0.3126 C.2     1  UNL1       -0.0426
     17 C          -4.6428    0.0352    1.7638 C.3     1  UNL1       -0.0001
     18 C          -0.6749   -0.3499    0.6067 C.2     1  UNL1        0.1418
     19 C          -0.9401    2.6353   -0.5839 C.3     1  UNL1        0.1110
     20 C          -2.7410    1.5360   -1.8964 C.2     1  UNL1       -0.0799
     21 C           0.2191   -1.5340    0.4661 C.3     1  UNL1        0.1884
     22 C          -1.5400    2.1326   -1.8688 C.2     1  UNL1       -0.0559
     23 C          -1.9709   -2.6738   -0.3316 C.2     1  UNL1       -0.0768
     24 C          -0.5789   -2.8519    0.2466 C.3     1  UNL1        0.0093
     25 C          -6.5945   -0.5915    0.4844 C.3     1  UNL1       -0.0124
     26 C           1.1245   -1.2502   -0.6998 C.2     1  UNL1        0.2023
     27 C           2.5979   -1.2090   -0.4797 C.ar    1  UNL1        0.0213
     28 C           3.2195   -0.0067   -0.1424 C.ar    1  UNL1       -0.0395
     29 C           3.3554   -2.3729   -0.6117 C.ar    1  UNL1       -0.0511
     30 C           4.5987    0.0319    0.0630 C.ar    1  UNL1        0.0555
     31 C           4.7347   -2.3343   -0.4067 C.ar    1  UNL1       -0.0606
     32 C           5.3563   -1.1320   -0.0690 C.ar    1  UNL1       -0.0501
     33 C           5.2639    1.3173    0.4225 C.3     1  UNL1        0.4174
     34 H          -4.0411    2.2492   -0.4147 H       1  UNL1        0.0368
     35 H          -5.2451    0.3993   -1.5511 H       1  UNL1        0.0472
     36 H          -1.3512    2.4960    1.5266 H       1  UNL1        0.0771
     37 H          -3.7422    1.9713    2.0682 H       1  UNL1        0.0287
     38 H          -2.7957    0.6348    2.7078 H       1  UNL1        0.0287
     39 H          -3.7610   -1.2857   -2.0700 H       1  UNL1        0.0329
     40 H          -4.6390   -2.0372   -0.7623 H       1  UNL1        0.0329
     41 H          -5.2826    0.2547    2.6278 H       1  UNL1        0.0427
     42 H          -4.3401   -1.0141    1.8656 H       1  UNL1        0.0427
     43 H          -1.3308    3.6508   -0.4371 H       1  UNL1        0.0675
     44 H          -3.1808    1.2533   -2.8474 H       1  UNL1        0.0573
     45 H          -1.0235    2.3290   -2.8034 H       1  UNL1        0.0596
     46 H          -2.4318   -3.5376   -0.8019 H       1  UNL1        0.0576
     47 H          -0.6789   -3.3967    1.1946 H       1  UNL1        0.0344
     48 H          -0.0152   -3.5147   -0.4227 H       1  UNL1        0.0344
     49 H          -7.1678   -0.4098   -0.4312 H       1  UNL1        0.0391
     50 H          -7.2589   -0.3441    1.3201 H       1  UNL1        0.0391
     51 H          -6.3666   -1.6604    0.5452 H       1  UNL1        0.0391
     52 H           0.6596    3.3333   -1.4692 H       1  UNL1        0.2104
     53 H           1.4606   -2.5286    1.6066 H       1  UNL1        0.2113
     54 H           2.6308    0.9014   -0.0397 H       1  UNL1        0.0630
     55 H           2.8802   -3.3145   -0.8738 H       1  UNL1        0.0625
     56 H           5.3243   -3.2406   -0.5095 H       1  UNL1        0.0618
     57 H           6.4315   -1.1236    0.0865 H       1  UNL1        0.0623
@<TRIPOS>BOND
     1     1    33    1
     2     2    33    1
     3     3    33    1
     4     4    12    1
     5     4    18    1
     6     5    19    1
     7     5    52    1
     8     6    21    1
     9     6    53    1
    10     7    26    2
    11     8    11    1
    12     8    17    1
    13     8    25    1
    14     9    10    1
    15     9    12    1
    16     9    13    1
    17     9    14    1
    18    10    11    1
    19    10    20    1
    20    10    34    1
    21    11    15    1
    22    11    35    1
    23    12    19    1
    24    12    36    1
    25    13    16    1
    26    13    18    2
    27    14    17    1
    28    14    37    1
    29    14    38    1
    30    15    16    1
    31    15    39    1
    32    15    40    1
    33    16    23    2
    34    17    41    1
    35    17    42    1
    36    18    21    1
    37    19    22    1
    38    19    43    1
    39    20    22    2
    40    20    44    1
    41    21    24    1
    42    21    26    1
    43    22    45    1
    44    23    24    1
    45    23    46    1
    46    24    47    1
    47    24    48    1
    48    25    49    1
    49    25    50    1
    50    25    51    1
    51    26    27    1
    52    27    28   ar
    53    27    29   ar
    54    28    30   ar
    55    28    54    1
    56    29    31   ar
    57    29    55    1
    58    30    32   ar
    59    30    33    1
    60    31    32   ar
    61    31    56    1
    62    32    57    1
@<TRIPOS>MOLECULE
161910
 51 55 0 0 0
SMALL
GASTEIGER

@<TRIPOS>ATOM
      1 O          -0.0583    0.9832   -1.4996 O.3     1  UNL1       -0.4799
      2 O           1.9144   -0.4610   -0.5817 O.3     1  UNL1       -0.4534
      3 O           0.2302    3.7195   -0.5719 O.3     1  UNL1       -0.5033
      4 O           3.0110   -2.2397    0.3941 O.2     1  UNL1       -0.2508
      5 O           7.8360   -0.4653    0.5996 O.3     1  UNL1       -0.4806
      6 O           6.5878    1.2337   -0.2475 O.2     1  UNL1       -0.2510
      7 N          -4.4908   -1.5005   -0.1947 N.3     1  UNL1       -0.3015
      8 C          -1.8151   -0.5522   -0.8013 C.3     1  UNL1        0.0491
      9 C          -2.0866   -1.6651    0.2225 C.3     1  UNL1        0.0064
     10 C          -3.4729   -1.3518    0.8735 C.3     1  UNL1        0.0213
     11 C          -0.3873   -0.4455   -1.3861 C.3     1  UNL1        0.1509
     12 C          -2.9057   -0.5828   -1.8902 C.3     1  UNL1       -0.0263
     13 C          -1.8373    0.7592   -0.0881 C.ar    1  UNL1        0.0116
     14 C          -3.4946    0.0274    1.6181 C.3     1  UNL1       -0.0110
     15 C          -4.3282   -0.5590   -1.3070 C.3     1  UNL1       -0.0001
     16 C          -2.6370    1.0930    0.9901 C.ar    1  UNL1       -0.0383
     17 C           0.6967   -1.2019   -0.5746 C.3     1  UNL1        0.1587
     18 C          -0.9497   -1.8075    1.2020 C.2     1  UNL1       -0.0788
     19 C          -0.8587    1.5968   -0.5742 C.ar    1  UNL1        0.1664
     20 C           0.3191   -1.5749    0.8344 C.2     1  UNL1       -0.0439
     21 C          -5.8616   -1.5026    0.3056 C.3     1  UNL1       -0.0124
     22 C          -2.5066    2.3842    1.5040 C.ar    1  UNL1       -0.0546
     23 C          -0.7169    2.8783   -0.0892 C.ar    1  UNL1        0.1588
     24 C          -1.5653    3.2762    0.9519 C.ar    1  UNL1       -0.0162
     25 C           3.0055   -1.1052   -0.0628 C.2     1  UNL1        0.3083
     26 C           4.2049   -0.1854   -0.1430 C.3     1  UNL1        0.0550
     27 C           5.4953   -0.8419    0.3327 C.3     1  UNL1        0.0548
     28 C           6.6717    0.0909    0.1831 C.2     1  UNL1        0.3052
     29 H          -2.1609   -2.6346   -0.2932 H       1  UNL1        0.0368
     30 H          -3.6755   -2.1319    1.6206 H       1  UNL1        0.0472
     31 H          -0.3617   -0.8329   -2.4129 H       1  UNL1        0.0783
     32 H          -2.7851   -1.4997   -2.4831 H       1  UNL1        0.0287
     33 H          -2.7957    0.2568   -2.5887 H       1  UNL1        0.0287
     34 H          -3.1046   -0.1426    2.6309 H       1  UNL1        0.0329
     35 H          -4.5153    0.4024    1.7417 H       1  UNL1        0.0329
     36 H          -4.5866    0.4615   -0.9983 H       1  UNL1        0.0427
     37 H          -5.0239   -0.8203   -2.1143 H       1  UNL1        0.0427
     38 H           0.8799   -2.1491   -1.1031 H       1  UNL1        0.0817
     39 H          -1.1654   -2.1281    2.2166 H       1  UNL1        0.0574
     40 H           1.0733   -1.7058    1.6031 H       1  UNL1        0.0607
     41 H          -6.1859   -0.5214    0.6661 H       1  UNL1        0.0391
     42 H          -5.9798   -2.2277    1.1182 H       1  UNL1        0.0391
     43 H          -6.5521   -1.8113   -0.4874 H       1  UNL1        0.0391
     44 H          -3.1097    2.7024    2.3502 H       1  UNL1        0.0622
     45 H          -1.4762    4.2757    1.3713 H       1  UNL1        0.0655
     46 H           0.7194    3.2583   -1.2754 H       1  UNL1        0.2923
     47 H           3.9922    0.7014    0.4655 H       1  UNL1        0.0383
     48 H           4.3160    0.1303   -1.1874 H       1  UNL1        0.0383
     49 H           5.6951   -1.7453   -0.2543 H       1  UNL1        0.0383
     50 H           5.4059   -1.1224    1.3880 H       1  UNL1        0.0383
     51 H           8.5913    0.1538    0.5071 H       1  UNL1        0.2951
@<TRIPOS>BOND
     1     1    11    1
     2     1    19    1
     3     2    17    1
     4     2    25    1
     5     3    23    1
     6     3    46    1
     7     4    25    2
     8     5    28    1
     9     5    51    1
    10     6    28    2
    11     7    10    1
    12     7    15    1
    13     7    21    1
    14     8     9    1
    15     8    11    1
    16     8    12    1
    17     8    13    1
    18     9    10    1
    19     9    18    1
    20     9    29    1
    21    10    14    1
    22    10    30    1
    23    11    17    1
    24    11    31    1
    25    12    15    1
    26    12    32    1
    27    12    33    1
    28    13    16   ar
    29    13    19   ar
    30    14    16    1
    31    14    34    1
    32    14    35    1
    33    15    36    1
    34    15    37    1
    35    16    22   ar
    36    17    20    1
    37    17    38    1
    38    18    20    2
    39    18    39    1
    40    19    23   ar
    41    20    40    1
    42    21    41    1
    43    21    42    1
    44    21    43    1
    45    22    24   ar
    46    22    44    1
    47    23    24   ar
    48    24    45    1
    49    25    26    1
    50    26    27    1
    51    26    47    1
    52    26    48    1
    53    27    28    1
    54    27    49    1
    55    27    50    1
@<TRIPOS>MOLECULE
622766
 51 55 0 0 0
SMALL
GASTEIGER

@<TRIPOS>ATOM
      1 O           0.2254   -1.8719   -0.8215 O.3     1  UNL1       -0.4799
      2 O          -2.3125   -0.5006    0.8938 O.3     1  UNL1       -0.4534
      3 O           1.9259   -4.2264   -0.5144 O.3     1  UNL1       -0.5033
      4 O          -1.9743    1.7220    0.3799 O.2     1  UNL1       -0.2508
      5 O          -6.8455   -1.0784   -1.3493 O.3     1  UNL1       -0.4806
      6 O          -6.9752    0.5675    0.2116 O.2     1  UNL1       -0.2510
      7 N           2.6832    2.7059   -0.8553 N.3     1  UNL1       -0.3015
      8 C           0.9526    0.4051   -0.4703 C.3     1  UNL1        0.0491
      9 C           1.0007    1.5786    0.5143 C.3     1  UNL1        0.0064
     10 C           2.4656    2.1231    0.4917 C.3     1  UNL1        0.0213
     11 C          -0.2645   -0.5390   -0.4068 C.3     1  UNL1        0.1509
     12 C           1.2314    0.9473   -1.8887 C.3     1  UNL1       -0.0263
     13 C           1.9886   -0.6055   -0.1177 C.ar    1  UNL1        0.0116
     14 C           3.5175    1.0456    0.9315 C.3     1  UNL1       -0.0110
     15 C           2.5435    1.7497   -1.9591 C.3     1  UNL1       -0.0001
     16 C           3.2116   -0.3539    0.4720 C.ar    1  UNL1       -0.0383
     17 C          -0.8997   -0.6918    1.0026 C.3     1  UNL1        0.1587
     18 C           0.4806    1.2227    1.8778 C.2     1  UNL1       -0.0788
     19 C           1.5363   -1.8756   -0.4081 C.ar    1  UNL1        0.1664
     20 C          -0.3820    0.2183    2.0804 C.2     1  UNL1       -0.0439
     21 C           3.9216    3.4695   -0.9658 C.3     1  UNL1       -0.0124
     22 C           4.0443   -1.4525    0.6862 C.ar    1  UNL1       -0.0546
     23 C           2.3462   -2.9721   -0.2206 C.ar    1  UNL1        0.1588
     24 C           3.6191   -2.7489    0.3237 C.ar    1  UNL1       -0.0162
     25 C          -2.7130    0.7668    0.5742 C.2     1  UNL1        0.3083
     26 C          -4.2245    0.7973    0.5020 C.3     1  UNL1        0.0550
     27 C          -4.7971   -0.2149   -0.4829 C.3     1  UNL1        0.0548
     28 C          -6.3056   -0.1879   -0.4810 C.2     1  UNL1        0.3052
     29 H           0.3531    2.3919    0.1569 H       1  UNL1        0.0368
     30 H           2.5273    2.9516    1.2110 H       1  UNL1        0.0472
     31 H          -1.0150   -0.2594   -1.1556 H       1  UNL1        0.0783
     32 H           0.4003    1.6003   -2.1876 H       1  UNL1        0.0287
     33 H           1.2718    0.1383   -2.6296 H       1  UNL1        0.0287
     34 H           3.5299    1.0272    2.0296 H       1  UNL1        0.0329
     35 H           4.5280    1.3246    0.6172 H       1  UNL1        0.0329
     36 H           3.3969    1.0609   -1.9882 H       1  UNL1        0.0427
     37 H           2.5532    2.2896   -2.9143 H       1  UNL1        0.0427
     38 H          -0.7689   -1.7216    1.3563 H       1  UNL1        0.0817
     39 H           0.7727    1.8450    2.7188 H       1  UNL1        0.0574
     40 H          -0.7429    0.0415    3.0907 H       1  UNL1        0.0607
     41 H           3.9301    4.0417   -1.9004 H       1  UNL1        0.0391
     42 H           4.8143    2.8362   -0.9548 H       1  UNL1        0.0391
     43 H           4.0039    4.2006   -0.1543 H       1  UNL1        0.0391
     44 H           5.0187   -1.3215    1.1491 H       1  UNL1        0.0622
     45 H           4.2855   -3.5900    0.5015 H       1  UNL1        0.0655
     46 H           1.0208   -4.1711   -0.8674 H       1  UNL1        0.2923
     47 H          -4.5240    1.8115    0.2104 H       1  UNL1        0.0383
     48 H          -4.6120    0.6336    1.5147 H       1  UNL1        0.0383
     49 H          -4.4808   -1.2303   -0.2203 H       1  UNL1        0.0383
     50 H          -4.4427    0.0093   -1.4949 H       1  UNL1        0.0383
     51 H          -7.8259   -1.0444   -1.3465 H       1  UNL1        0.2951
@<TRIPOS>BOND
     1     1    11    1
     2     1    19    1
     3     2    17    1
     4     2    25    1
     5     3    23    1
     6     3    46    1
     7     4    25    2
     8     5    28    1
     9     5    51    1
    10     6    28    2
    11     7    10    1
    12     7    15    1
    13     7    21    1
    14     8     9    1
    15     8    11    1
    16     8    12    1
    17     8    13    1
    18     9    10    1
    19     9    18    1
    20     9    29    1
    21    10    14    1
    22    10    30    1
    23    11    17    1
    24    11    31    1
    25    12    15    1
    26    12    32    1
    27    12    33    1
    28    13    16   ar
    29    13    19   ar
    30    14    16    1
    31    14    34    1
    32    14    35    1
    33    15    36    1
    34    15    37    1
    35    16    22   ar
    36    17    20    1
    37    17    38    1
    38    18    20    2
    39    18    39    1
    40    19    23   ar
    41    20    40    1
    42    21    41    1
    43    21    42    1
    44    21    43    1
    45    22    24   ar
    46    22    44    1
    47    23    24   ar
    48    24    45    1
    49    25    26    1
    50    26    27    1
    51    26    47    1
    52    26    48    1
    53    27    28    1
    54    27    49    1
    55    27    50    1
@<TRIPOS>MOLECULE
5491823
 40 44 0 0 0
SMALL
GASTEIGER

@<TRIPOS>ATOM
      1 O          -1.9002    1.2769   -0.8425 O.3     1  UNL1       -0.4811
      2 O          -0.9650    2.8029    1.2900 O.3     1  UNL1       -0.3841
      3 O          -4.2630   -0.3528   -0.4020 O.3     1  UNL1       -0.5033
      4 N           2.9203   -0.9340   -0.2835 N.3     1  UNL1       -0.3015
      5 C           0.3941    0.4727   -0.5170 C.3     1  UNL1        0.0480
      6 C           1.2563    0.5798    0.7491 C.3     1  UNL1        0.0064
      7 C           2.0279   -0.7665    0.8797 C.3     1  UNL1        0.0213
      8 C          -0.4983    1.6915   -0.8432 C.3     1  UNL1        0.1399
      9 C           1.2255    0.0804   -1.7614 C.3     1  UNL1       -0.0263
     10 C          -0.6388   -0.5205   -0.1685 C.ar    1  UNL1        0.0116
     11 C           0.9874   -1.9500    1.0845 C.3     1  UNL1       -0.0110
     12 C           2.1816   -1.0918   -1.5361 C.3     1  UNL1       -0.0001
     13 C          -0.4017   -1.6959    0.5283 C.ar    1  UNL1       -0.0383
     14 C          -0.2207    2.8998    0.0783 C.3     1  UNL1        0.1110
     15 C           1.9726    1.8988    0.7306 C.2     1  UNL1       -0.0799
     16 C          -1.8993   -0.0308   -0.4234 C.ar    1  UNL1        0.1663
     17 C           1.2489    2.9973    0.4398 C.2     1  UNL1       -0.0559
     18 C           3.8943   -2.0065   -0.1033 C.3     1  UNL1       -0.0124
     19 C          -1.5105   -2.4946    0.8040 C.ar    1  UNL1       -0.0546
     20 C          -3.0084   -0.8004   -0.1483 C.ar    1  UNL1        0.1588
     21 C          -2.8029   -2.0562    0.4447 C.ar    1  UNL1       -0.0162
     22 H           0.6277    0.6334    1.6552 H       1  UNL1        0.0368
     23 H           2.6550   -0.7090    1.7796 H       1  UNL1        0.0472
     24 H          -0.2951    2.0267   -1.8701 H       1  UNL1        0.0772
     25 H           1.8228    0.9475   -2.0758 H       1  UNL1        0.0287
     26 H           0.5667   -0.1632   -2.6055 H       1  UNL1        0.0287
     27 H           0.8749   -2.0807    2.1696 H       1  UNL1        0.0329
     28 H           1.3672   -2.9006    0.6972 H       1  UNL1        0.0329
     29 H           1.6290   -2.0388   -1.5644 H       1  UNL1        0.0427
     30 H           2.8827   -1.1213   -2.3798 H       1  UNL1        0.0427
     31 H          -0.5487    3.8136   -0.4294 H       1  UNL1        0.0675
     32 H           3.0143    1.9712    1.0193 H       1  UNL1        0.0573
     33 H           1.7108    3.9784    0.4767 H       1  UNL1        0.0596
     34 H           4.6220   -1.9984   -0.9227 H       1  UNL1        0.0391
     35 H           3.4367   -3.0003   -0.0714 H       1  UNL1        0.0391
     36 H           4.4666   -1.8600    0.8194 H       1  UNL1        0.0391
     37 H          -1.3948   -3.4331    1.3390 H       1  UNL1        0.0622
     38 H          -3.6572   -2.6858    0.6843 H       1  UNL1        0.0655
     39 H          -0.7801    3.5995    1.8166 H       1  UNL1        0.2104
     40 H          -4.1974    0.5331   -0.7991 H       1  UNL1        0.2923
@<TRIPOS>BOND
     1     1     8    1
     2     1    16    1
     3     2    14    1
     4     2    39    1
     5     3    20    1
     6     3    40    1
     7     4     7    1
     8     4    12    1
     9     4    18    1
    10     5     6    1
    11     5     8    1
    12     5     9    1
    13     5    10    1
    14     6     7    1
    15     6    15    1
    16     6    22    1
    17     7    11    1
    18     7    23    1
    19     8    14    1
    20     8    24    1
    21     9    12    1
    22     9    25    1
    23     9    26    1
    24    10    13   ar
    25    10    16   ar
    26    11    13    1
    27    11    27    1
    28    11    28    1
    29    12    29    1
    30    12    30    1
    31    13    19   ar
    32    14    17    1
    33    14    31    1
    34    15    17    2
    35    15    32    1
    36    16    20   ar
    37    17    33    1
    38    18    34    1
    39    18    35    1
    40    18    36    1
    41    19    21   ar
    42    19    37    1
    43    20    21   ar
    44    21    38    1
@<TRIPOS>MOLECULE
15942735
 41 46 0 0 0
SMALL
GASTEIGER

@<TRIPOS>ATOM
      1 O          -0.9337    2.7672   -1.6580 O.3     1  UNL1       -0.3651
      2 O           1.8854    0.7345    1.1955 O.3     1  UNL1       -0.4813
      3 O           1.7715    3.3519    0.4756 O.3     1  UNL1       -0.3854
      4 O           4.0670   -1.0107    0.4450 O.3     1  UNL1       -0.5033
      5 N          -3.0289   -1.1529    0.3441 N.3     1  UNL1       -0.3017
      6 C          -0.4850    0.3006    0.7291 C.3     1  UNL1        0.0468
      7 C          -1.4767    0.6907   -0.3818 C.3     1  UNL1        0.0170
      8 C          -0.7551    1.3535   -1.5333 C.3     1  UNL1        0.0931
      9 C           0.3384    2.3261   -1.1631 C.3     1  UNL1        0.1148
     10 C           0.5599    1.3614    1.1662 C.3     1  UNL1        0.1387
     11 C          -2.2348   -0.6110   -0.7875 C.3     1  UNL1        0.0203
     12 C           0.5601    2.6283    0.2896 C.3     1  UNL1        0.1212
     13 C          -1.2618   -0.2698    1.9326 C.3     1  UNL1       -0.0265
     14 C           0.4488   -0.7076    0.1523 C.ar    1  UNL1        0.0113
     15 C          -1.2785   -1.7367   -1.3227 C.3     1  UNL1       -0.0113
     16 C          -2.2228   -1.4048    1.5471 C.3     1  UNL1       -0.0002
     17 C           0.1157   -1.7044   -0.7503 C.ar    1  UNL1       -0.0383
     18 C           1.7511   -0.4366    0.5029 C.ar    1  UNL1        0.1663
     19 C          -4.2055   -0.3398    0.6464 C.3     1  UNL1       -0.0125
     20 C           1.1414   -2.5488   -1.1792 C.ar    1  UNL1       -0.0546
     21 C           2.7808   -1.2553    0.0908 C.ar    1  UNL1        0.1588
     22 C           2.4628   -2.3359   -0.7414 C.ar    1  UNL1       -0.0162
     23 H          -2.1921    1.4233    0.0132 H       1  UNL1        0.0352
     24 H          -0.6544    0.7732   -2.4379 H       1  UNL1        0.0626
     25 H           1.2073    2.4000   -1.8001 H       1  UNL1        0.0649
     26 H           0.3822    1.6827    2.2010 H       1  UNL1        0.0769
     27 H          -2.9287   -0.3856   -1.6087 H       1  UNL1        0.0469
     28 H          -0.2508    3.2807    0.6367 H       1  UNL1        0.0657
     29 H          -1.8392    0.5402    2.3975 H       1  UNL1        0.0287
     30 H          -0.5721   -0.6421    2.7013 H       1  UNL1        0.0287
     31 H          -1.1872   -1.6021   -2.4090 H       1  UNL1        0.0329
     32 H          -1.7208   -2.7294   -1.1711 H       1  UNL1        0.0329
     33 H          -1.6449   -2.3240    1.3908 H       1  UNL1        0.0427
     34 H          -2.8707   -1.6376    2.4021 H       1  UNL1        0.0427
     35 H           2.5076    2.7571    0.2514 H       1  UNL1        0.2101
     36 H          -4.8500   -0.8613    1.3633 H       1  UNL1        0.0391
     37 H          -4.8114   -0.1839   -0.2530 H       1  UNL1        0.0391
     38 H          -3.9587    0.6385    1.0699 H       1  UNL1        0.0391
     39 H           0.9350   -3.3516   -1.8818 H       1  UNL1        0.0622
     40 H           3.2453   -3.0013   -1.0987 H       1  UNL1        0.0655
     41 H           4.6372   -1.6917    0.0486 H       1  UNL1        0.2923
@<TRIPOS>BOND
     1     1     8    1
     2     1     9    1
     3     2    10    1
     4     2    18    1
     5     3    12    1
     6     3    35    1
     7     4    21    1
     8     4    41    1
     9     5    11    1
    10     5    16    1
    11     5    19    1
    12     6     7    1
    13     6    10    1
    14     6    13    1
    15     6    14    1
    16     7     8    1
    17     7    11    1
    18     7    23    1
    19     8     9    1
    20     8    24    1
    21     9    12    1
    22     9    25    1
    23    10    12    1
    24    10    26    1
    25    11    15    1
    26    11    27    1
    27    12    28    1
    28    13    16    1
    29    13    29    1
    30    13    30    1
    31    14    17   ar
    32    14    18   ar
    33    15    17    1
    34    15    31    1
    35    15    32    1
    36    16    33    1
    37    16    34    1
    38    17    20   ar
    39    18    21   ar
    40    19    36    1
    41    19    37    1
    42    19    38    1
    43    20    22   ar
    44    20    39    1
    45    21    22   ar
    46    22    40    1
@<TRIPOS>MOLECULE
16677972
 60 65 0 0 0
SMALL
GASTEIGER

@<TRIPOS>ATOM
      1 O          -0.7958    1.4516   -0.0018 O.3     1  UNL1       -0.4811
      2 O           1.4155    0.3543    1.0116 O.3     1  UNL1       -0.3377
      3 O          -2.1529    3.9544    0.6058 O.3     1  UNL1       -0.5033
      4 O           3.4449   -0.7242    0.6100 O.3     1  UNL1       -0.3315
      5 O           2.2144    2.4558   -0.7002 O.3     1  UNL1       -0.3841
      6 O           5.1440    2.7220   -0.8422 O.3     1  UNL1       -0.3864
      7 O           6.3408    0.1436   -1.4489 O.3     1  UNL1       -0.3860
      8 O           6.4411   -2.3031   -0.3151 O.3     1  UNL1       -0.4788
      9 O           5.1159   -2.4184    1.5359 O.2     1  UNL1       -0.2480
     10 N          -4.8103   -1.4723   -1.3677 N.3     1  UNL1       -0.2984
     11 C          -1.9665   -0.7090   -0.3708 C.3     1  UNL1        0.0467
     12 C          -2.2622   -1.8154    0.6808 C.3     1  UNL1       -0.0078
     13 C          -0.5910    0.0231   -0.2980 C.3     1  UNL1        0.1402
     14 C          -2.8332    0.4506   -0.0372 C.ar    1  UNL1        0.0130
     15 C          -2.3027   -1.1825   -1.8036 C.3     1  UNL1       -0.0263
     16 C          -4.7255   -1.0693    0.0534 C.3     1  UNL1        0.0363
     17 C          -3.8066   -1.9694    0.9420 C.3     1  UNL1       -0.0260
     18 C          -4.1949    0.3395    0.1559 C.ar    1  UNL1       -0.0227
     19 C           0.3766   -0.5794    0.7323 C.3     1  UNL1        0.1175
     20 C          -3.5778   -2.0405   -1.9397 C.3     1  UNL1        0.0001
     21 C          -2.1405    1.6173    0.1291 C.ar    1  UNL1        0.1664
     22 C          -1.5066   -1.5962    1.9727 C.2     1  UNL1       -0.0813
     23 C          -0.2990   -1.0152    1.9968 C.2     1  UNL1       -0.0556
     24 C          -4.9022    1.4969    0.4575 C.ar    1  UNL1       -0.0531
     25 C          -2.8115    2.7805    0.4389 C.ar    1  UNL1        0.1588
     26 C          -5.9270   -2.3969   -1.5810 C.3     1  UNL1       -0.0122
     27 C          -4.2071    2.7159    0.5911 C.ar    1  UNL1       -0.0162
     28 C           2.5024    0.2142    0.0973 C.3     1  UNL1        0.1893
     29 C           3.1559    1.5859   -0.0719 C.3     1  UNL1        0.1342
     30 C           4.4162    1.4963   -0.9330 C.3     1  UNL1        0.1145
     31 C           5.3329    0.3661   -0.4640 C.3     1  UNL1        0.1201
     32 C           4.5449   -0.9234   -0.2705 C.3     1  UNL1        0.1859
     33 C           5.3676   -1.9528    0.4344 C.2     1  UNL1        0.3367
     34 H          -1.8984   -2.7788    0.2953 H       1  UNL1        0.0353
     35 H          -0.1035    0.0165   -1.2814 H       1  UNL1        0.0772
     36 H          -1.4660   -1.7882   -2.1769 H       1  UNL1        0.0287
     37 H          -2.3828   -0.3213   -2.4817 H       1  UNL1        0.0287
     38 H          -5.7284   -1.0692    0.5012 H       1  UNL1        0.0512
     39 H          -4.0297   -1.7314    1.9920 H       1  UNL1        0.0289
     40 H          -4.0899   -3.0232    0.8219 H       1  UNL1        0.0289
     41 H           0.8137   -1.4997    0.3166 H       1  UNL1        0.0679
     42 H          -3.7359   -2.1938   -3.0157 H       1  UNL1        0.0427
     43 H          -3.3854   -3.0399   -1.5281 H       1  UNL1        0.0427
     44 H          -1.9257   -1.9721    2.9015 H       1  UNL1        0.0573
     45 H           0.2344   -0.9274    2.9383 H       1  UNL1        0.0596
     46 H          -5.9767    1.4686    0.6110 H       1  UNL1        0.0622
     47 H          -6.0344   -2.6364   -2.6450 H       1  UNL1        0.0391
     48 H          -5.7988   -3.3339   -1.0277 H       1  UNL1        0.0391
     49 H          -6.8733   -1.9385   -1.2727 H       1  UNL1        0.0391
     50 H          -4.7710    3.6133    0.8365 H       1  UNL1        0.0655
     51 H           2.1375   -0.1331   -0.8790 H       1  UNL1        0.0938
     52 H           3.3885    2.0240    0.9058 H       1  UNL1        0.0671
     53 H           4.1564    1.3747   -1.9912 H       1  UNL1        0.0648
     54 H          -2.7987    4.6491    0.8212 H       1  UNL1        0.2923
     55 H           5.8445    0.6555    0.4622 H       1  UNL1        0.0652
     56 H           4.1899   -1.3580   -1.2133 H       1  UNL1        0.0741
     57 H           1.9850    2.0774   -1.5661 H       1  UNL1        0.2101
     58 H           5.3712    2.8702    0.0915 H       1  UNL1        0.2100
     59 H           5.9017   -0.1216   -2.2751 H       1  UNL1        0.2100
     60 H           6.9958   -2.9776    0.1318 H       1  UNL1        0.2951
@<TRIPOS>BOND
     1     1    13    1
     2     1    21    1
     3     2    19    1
     4     2    28    1
     5     3    25    1
     6     3    54    1
     7     4    28    1
     8     4    32    1
     9     5    29    1
    10     5    57    1
    11     6    30    1
    12     6    58    1
    13     7    31    1
    14     7    59    1
    15     8    33    1
    16     8    60    1
    17     9    33    2
    18    10    16    1
    19    10    20    1
    20    10    26    1
    21    11    12    1
    22    11    13    1
    23    11    14    1
    24    11    15    1
    25    12    17    1
    26    12    22    1
    27    12    34    1
    28    13    19    1
    29    13    35    1
    30    14    18   ar
    31    14    21   ar
    32    15    20    1
    33    15    36    1
    34    15    37    1
    35    16    17    1
    36    16    18    1
    37    16    38    1
    38    17    39    1
    39    17    40    1
    40    18    24   ar
    41    19    23    1
    42    19    41    1
    43    20    42    1
    44    20    43    1
    45    21    25   ar
    46    22    23    2
    47    22    44    1
    48    23    45    1
    49    24    27   ar
    50    24    46    1
    51    25    27   ar
    52    26    47    1
    53    26    48    1
    54    26    49    1
    55    27    50    1
    56    28    29    1
    57    28    51    1
    58    29    30    1
    59    29    52    1
    60    30    31    1
    61    30    53    1
    62    31    32    1
    63    31    55    1
    64    32    33    1
    65    32    56    1
@<TRIPOS>MOLECULE
54017718
 42 46 0 0 0
SMALL
GASTEIGER

@<TRIPOS>ATOM
      1 O          -1.2270   -0.8167    1.3212 O.3     1  UNL1       -0.4808
      2 O          -1.7713   -2.9457   -0.0895 O.3     1  UNL1       -0.3841
      3 O          -3.2069    1.2376    0.7804 O.3     1  UNL1       -0.1717
      4 O          -3.6241    0.0284   -1.1115 O.co2   1  UNL1       -0.5335
      5 O          -5.2495    0.4497    0.3548 O.2     1  UNL1        0.0938
      6 N           3.7792    0.4096    0.3454 N.3     1  UNL1       -0.3015
      7 N          -4.0963    0.5054   -0.0754 N.pl3   1  UNL1        0.2901
      8 C           1.1186   -0.7031    0.6753 C.3     1  UNL1        0.0480
      9 C           2.0664   -1.1442   -0.4504 C.3     1  UNL1        0.0064
     10 C           2.9285    0.1035   -0.8301 C.3     1  UNL1        0.0213
     11 C          -0.0467   -1.6497    1.0468 C.3     1  UNL1        0.1399
     12 C           1.9474   -0.2673    1.8997 C.3     1  UNL1       -0.0263
     13 C           0.2964    0.4397    0.1778 C.ar    1  UNL1        0.0118
     14 C           2.0628    1.3031   -1.3480 C.3     1  UNL1       -0.0110
     15 C           3.0238    0.7731    1.5485 C.3     1  UNL1       -0.0001
     16 C           0.7073    1.4224   -0.7049 C.ar    1  UNL1       -0.0383
     17 C          -0.3643   -2.7269   -0.0232 C.3     1  UNL1        0.1110
     18 C           1.3127   -1.7612   -1.6009 C.2     1  UNL1       -0.0799
     19 C          -1.0002    0.3426    0.6299 C.ar    1  UNL1        0.1743
     20 C           0.1905   -2.4675   -1.3987 C.2     1  UNL1       -0.0559
     21 C           4.8317    1.3803    0.0637 C.3     1  UNL1       -0.0124
     22 C          -0.2212    2.4115   -1.0337 C.ar    1  UNL1       -0.0543
     23 C          -1.9316    1.3110    0.3261 C.ar    1  UNL1        0.2522
     24 C          -1.5261    2.3645   -0.5034 C.ar    1  UNL1       -0.0082
     25 H           2.7433   -1.9291   -0.0802 H       1  UNL1        0.0368
     26 H           3.6028   -0.1917   -1.6460 H       1  UNL1        0.0472
     27 H           0.1671   -2.1730    1.9878 H       1  UNL1        0.0772
     28 H           2.4405   -1.1526    2.3237 H       1  UNL1        0.0287
     29 H           1.3057    0.1410    2.6912 H       1  UNL1        0.0287
     30 H           1.8952    1.1446   -2.4220 H       1  UNL1        0.0329
     31 H           2.5972    2.2539   -1.2583 H       1  UNL1        0.0329
     32 H           2.5629    1.7625    1.4385 H       1  UNL1        0.0427
     33 H           3.7076    0.8469    2.4035 H       1  UNL1        0.0427
     34 H           0.0812   -3.6725    0.3127 H       1  UNL1        0.0675
     35 H           1.7123   -1.6652   -2.6056 H       1  UNL1        0.0573
     36 H          -0.2961   -2.9346   -2.2503 H       1  UNL1        0.0596
     37 H           5.4074    1.0866   -0.8209 H       1  UNL1        0.0391
     38 H           5.5426    1.4184    0.8969 H       1  UNL1        0.0391
     39 H           4.4475    2.3931   -0.0928 H       1  UNL1        0.0391
     40 H           0.0459    3.2091   -1.7217 H       1  UNL1        0.0622
     41 H          -2.2347    3.1429   -0.7770 H       1  UNL1        0.0658
     42 H          -1.9323   -3.6731   -0.7147 H       1  UNL1        0.2104
@<TRIPOS>UNITY_ATOM_ATTR
4 1
charge -1
7 1
charge 1
@<TRIPOS>BOND
     1     1    11    1
     2     1    19    1
     3     2    17    1
     4     2    42    1
     5     3     7    1
     6     3    23    1
     7     4     7    1
     8     5     7    2
     9     6    10    1
    10     6    15    1
    11     6    21    1
    12     8     9    1
    13     8    11    1
    14     8    12    1
    15     8    13    1
    16     9    10    1
    17     9    18    1
    18     9    25    1
    19    10    14    1
    20    10    26    1
    21    11    17    1
    22    11    27    1
    23    12    15    1
    24    12    28    1
    25    12    29    1
    26    13    16   ar
    27    13    19   ar
    28    14    16    1
    29    14    30    1
    30    14    31    1
    31    15    32    1
    32    15    33    1
    33    16    22   ar
    34    17    20    1
    35    17    34    1
    36    18    20    2
    37    18    35    1
    38    19    23   ar
    39    20    36    1
    40    21    37    1
    41    21    38    1
    42    21    39    1
    43    22    24   ar
    44    22    40    1
    45    23    24   ar
    46    24    41    1
@<TRIPOS>MOLECULE
67513718
 48 52 0 0 0
SMALL
GASTEIGER

@<TRIPOS>ATOM
      1 S           2.9286   -0.0832    0.8167 S.O2    1  UNL1        0.0992
      2 F           4.4797   -0.0331   -1.2502 F       1  UNL1       -0.1502
      3 F           4.3944   -1.9533   -0.2177 F       1  UNL1       -0.1502
      4 F           5.5068   -0.2917    0.6574 F       1  UNL1       -0.1502
      5 O           0.3439    1.5481    0.9149 O.2     1  UNL1       -0.4843
      6 O          -0.3965    3.8641   -0.0827 O.3     1  UNL1       -0.3841
      7 O           2.0398    0.9030   -1.4849 O.3     1  UNL1       -0.3625
      8 O           3.1424    1.2800    1.2585 O.2     1  UNL1       -0.1630
      9 O           2.5540   -1.1259    1.7501 O.2     1  UNL1       -0.1630
     10 N          -3.8793   -1.5870    0.6233 N.3     1  UNL1       -0.3015
     11 C          -1.8227    0.4646    0.6980 C.3     1  UNL1        0.0477
     12 C          -3.0694    0.5725   -0.1980 C.3     1  UNL1        0.0063
     13 C          -1.0955    1.7959    1.0244 C.3     1  UNL1        0.1394
     14 C          -3.4587   -0.8796   -0.6091 C.3     1  UNL1        0.0213
     15 C          -0.7313   -0.2245   -0.0450 C.2     1  UNL1        0.0081
     16 C          -2.1956   -0.3301    1.9663 C.3     1  UNL1       -0.0263
     17 C          -2.3275   -1.5826   -1.4256 C.3     1  UNL1       -0.0114
     18 C          -0.9144   -1.2812   -0.9934 C.2     1  UNL1       -0.0425
     19 C           0.4248    0.3933    0.1513 C.2     1  UNL1        0.1563
     20 C          -2.8308   -1.6917    1.6433 C.3     1  UNL1       -0.0001
     21 C          -1.5012    2.9896    0.1254 C.3     1  UNL1        0.1110
     22 C          -2.8426    1.5139   -1.3541 C.2     1  UNL1       -0.0799
     23 C           1.7067   -0.0482   -0.4749 C.3     1  UNL1        0.2530
     24 C          -2.0996    2.6197   -1.2019 C.2     1  UNL1       -0.0559
     25 C           1.5857   -1.4619   -1.1249 C.3     1  UNL1        0.0230
     26 C           0.1772   -1.8774   -1.5050 C.2     1  UNL1       -0.0756
     27 C          -4.5023   -2.8813    0.3667 C.3     1  UNL1       -0.0124
     28 C           4.3835   -0.6119   -0.0289 C.3     1  UNL1        0.5248
     29 H          -3.9056    0.9991    0.3769 H       1  UNL1        0.0368
     30 H          -1.2611    2.0899    2.0687 H       1  UNL1        0.0771
     31 H          -4.3413   -0.8134   -1.2606 H       1  UNL1        0.0472
     32 H          -2.9078    0.2604    2.5586 H       1  UNL1        0.0287
     33 H          -1.3179   -0.4889    2.6063 H       1  UNL1        0.0287
     34 H          -2.4246   -1.2401   -2.4659 H       1  UNL1        0.0329
     35 H          -2.4843   -2.6660   -1.4615 H       1  UNL1        0.0329
     36 H          -2.0540   -2.4031    1.3372 H       1  UNL1        0.0427
     37 H          -3.2607   -2.0880    2.5718 H       1  UNL1        0.0427
     38 H          -2.2643    3.5699    0.6605 H       1  UNL1        0.0675
     39 H          -3.3239    1.3147   -2.3063 H       1  UNL1        0.0573
     40 H          -1.9939    3.3044   -2.0382 H       1  UNL1        0.0596
     41 H           1.9599   -2.2526   -0.4644 H       1  UNL1        0.0357
     42 H           2.2002   -1.4930   -2.0337 H       1  UNL1        0.0357
     43 H           0.0708   -2.6751   -2.2345 H       1  UNL1        0.0576
     44 H          -5.3009   -2.7902   -0.3775 H       1  UNL1        0.0391
     45 H          -4.9725   -3.2617    1.2807 H       1  UNL1        0.0391
     46 H          -3.7889   -3.6358    0.0203 H       1  UNL1        0.0391
     47 H          -0.7175    4.6432   -0.5683 H       1  UNL1        0.2104
     48 H           1.3678    0.8477   -2.1862 H       1  UNL1        0.2125
@<TRIPOS>BOND
     1     1     8    2
     2     1     9    2
     3     1    23    1
     4     1    28    1
     5     2    28    1
     6     3    28    1
     7     4    28    1
     8     5    13    1
     9     5    19    1
    10     6    21    1
    11     6    47    1
    12     7    23    1
    13     7    48    1
    14    10    14    1
    15    10    20    1
    16    10    27    1
    17    11    12    1
    18    11    13    1
    19    11    15    1
    20    11    16    1
    21    12    14    1
    22    12    22    1
    23    12    29    1
    24    13    21    1
    25    13    30    1
    26    14    17    1
    27    14    31    1
    28    15    18    1
    29    15    19    2
    30    16    20    1
    31    16    32    1
    32    16    33    1
    33    17    18    1
    34    17    34    1
    35    17    35    1
    36    18    26    2
    37    19    23    1
    38    20    36    1
    39    20    37    1
    40    21    24    1
    41    21    38    1
    42    22    24    2
    43    22    39    1
    44    23    25    1
    45    24    40    1
    46    25    26    1
    47    25    41    1
    48    25    42    1
    49    26    43    1
    50    27    44    1
    51    27    45    1
    52    27    46    1
@<TRIPOS>MOLECULE
91753910
 53 57 0 0 0
SMALL
GASTEIGER

@<TRIPOS>ATOM
      1 O          -0.8706    0.2501   -1.1751 O.3     1  UNL1       -0.4799
      2 O          -0.8983    3.2652    0.2988 O.3     1  UNL1       -0.4536
      3 O          -2.3407   -2.2521   -0.8464 O.3     1  UNL1       -0.4221
      4 O          -2.9786    2.5306   -0.3863 O.2     1  UNL1       -0.2511
      5 O          -3.1423   -1.3538    1.1580 O.2     1  UNL1       -0.2504
      6 N           4.2724   -0.0411   -0.4949 N.3     1  UNL1       -0.3015
      7 C           1.4361    0.5837   -0.5389 C.3     1  UNL1        0.0491
      8 C           2.3850    1.1188    0.5392 C.3     1  UNL1        0.0064
      9 C           3.4790    0.0241    0.7571 C.3     1  UNL1        0.0213
     10 C           0.0773    1.2897   -0.7175 C.3     1  UNL1        0.1509
     11 C           2.2274    0.4400   -1.8568 C.3     1  UNL1       -0.0263
     12 C           0.9011   -0.7478   -0.1390 C.ar    1  UNL1        0.0116
     13 C           2.8785   -1.3426    1.2396 C.3     1  UNL1       -0.0110
     14 C           3.4982   -0.4120   -1.6844 C.3     1  UNL1       -0.0001
     15 C           1.5507   -1.6956    0.6267 C.ar    1  UNL1       -0.0383
     16 C          -0.5072    1.9185    0.5772 C.3     1  UNL1        0.1587
     17 C           1.6703    1.5541    1.7867 C.2     1  UNL1       -0.0788
     18 C          -0.3922   -0.8997   -0.5933 C.ar    1  UNL1        0.1673
     19 C           0.3837    1.9265    1.7873 C.2     1  UNL1       -0.0439
     20 C           5.4832   -0.8465   -0.3752 C.3     1  UNL1       -0.0124
     21 C           0.8712   -2.8924    0.8556 C.ar    1  UNL1       -0.0545
     22 C          -1.0754   -2.0773   -0.3936 C.ar    1  UNL1        0.1733
     23 C          -0.4251   -3.0861    0.3315 C.ar    1  UNL1       -0.0153
     24 C          -2.1662    3.4219   -0.1796 C.2     1  UNL1        0.3046
     25 C          -3.3452   -1.8372    0.0524 C.2     1  UNL1        0.3122
     26 C          -2.4351    4.8758   -0.4247 C.3     1  UNL1        0.0333
     27 C          -4.7058   -2.0805   -0.5603 C.3     1  UNL1        0.0425
     28 C          -5.8313   -1.6340    0.3560 C.3     1  UNL1       -0.0552
     29 H           2.8824    2.0282    0.1679 H       1  UNL1        0.0368
     30 H           4.1569    0.3791    1.5458 H       1  UNL1        0.0472
     31 H           0.1305    2.0398   -1.5162 H       1  UNL1        0.0783
     32 H           2.5165    1.4401   -2.2073 H       1  UNL1        0.0287
     33 H           1.6116   -0.0007   -2.6514 H       1  UNL1        0.0287
     34 H           2.7217   -1.2684    2.3242 H       1  UNL1        0.0329
     35 H           3.5855   -2.1640    1.0867 H       1  UNL1        0.0329
     36 H           3.2295   -1.4754   -1.6586 H       1  UNL1        0.0427
     37 H           4.1159   -0.2742   -2.5808 H       1  UNL1        0.0427
     38 H          -1.3915    1.3463    0.8920 H       1  UNL1        0.0817
     39 H           2.2404    1.6243    2.7086 H       1  UNL1        0.0574
     40 H          -0.0571    2.2646    2.7219 H       1  UNL1        0.0607
     41 H           6.0696   -0.5436    0.4991 H       1  UNL1        0.0391
     42 H           6.1270   -0.6923   -1.2486 H       1  UNL1        0.0391
     43 H           5.2753   -1.9185   -0.2997 H       1  UNL1        0.0391
     44 H           1.3270   -3.6775    1.4529 H       1  UNL1        0.0622
     45 H          -0.9345   -4.0278    0.5240 H       1  UNL1        0.0656
     46 H          -2.3469    5.4321    0.5119 H       1  UNL1        0.0342
     47 H          -3.4525    4.9970   -0.8074 H       1  UNL1        0.0342
     48 H          -1.7347    5.2616   -1.1697 H       1  UNL1        0.0342
     49 H          -4.8050   -3.1514   -0.7654 H       1  UNL1        0.0375
     50 H          -4.7630   -1.5268   -1.5032 H       1  UNL1        0.0375
     51 H          -5.7571   -0.5640    0.5769 H       1  UNL1        0.0235
     52 H          -6.8020   -1.8202   -0.1136 H       1  UNL1        0.0235
     53 H          -5.8016   -2.1750    1.3076 H       1  UNL1        0.0235
@<TRIPOS>BOND
     1     1    10    1
     2     1    18    1
     3     2    16    1
     4     2    24    1
     5     3    22    1
     6     3    25    1
     7     4    24    2
     8     5    25    2
     9     6     9    1
    10     6    14    1
    11     6    20    1
    12     7     8    1
    13     7    10    1
    14     7    11    1
    15     7    12    1
    16     8     9    1
    17     8    17    1
    18     8    29    1
    19     9    13    1
    20     9    30    1
    21    10    16    1
    22    10    31    1
    23    11    14    1
    24    11    32    1
    25    11    33    1
    26    12    15   ar
    27    12    18   ar
    28    13    15    1
    29    13    34    1
    30    13    35    1
    31    14    36    1
    32    14    37    1
    33    15    21   ar
    34    16    19    1
    35    16    38    1
    36    17    19    2
    37    17    39    1
    38    18    22   ar
    39    19    40    1
    40    20    41    1
    41    20    42    1
    42    20    43    1
    43    21    23   ar
    44    21    44    1
    45    22    23   ar
    46    23    45    1
    47    24    26    1
    48    25    27    1
    49    26    46    1
    50    26    47    1
    51    26    48    1
    52    27    28    1
    53    27    49    1
    54    27    50    1
    55    28    51    1
    56    28    52    1
    57    28    53    1
@<TRIPOS>MOLECULE
117862198
 51 54 0 0 0
SMALL
GASTEIGER

@<TRIPOS>ATOM
      1 O          -5.0826    0.0448   -1.6396 O.2     1  UNL1       -0.2704
      2 N           2.2033    0.1513    0.1722 N.3     1  UNL1       -0.2983
      3 N          -5.6205   -1.7038   -0.2570 N.am    1  UNL1       -0.3253
      4 C           4.3063   -0.9861   -0.3101 C.3     1  UNL1       -0.0193
      5 C          -0.2918    1.6093   -0.3104 C.3     1  UNL1       -0.0016
      6 C           1.3978    0.6674    1.2975 C.3     1  UNL1        0.0178
      7 C           0.6640    1.9613    0.8768 C.3     1  UNL1       -0.0185
      8 C           3.0836   -0.9505    0.5481 C.3     1  UNL1        0.0046
      9 C           5.0684   -2.2872   -0.4043 C.3     1  UNL1       -0.0459
     10 C           4.2594   -1.8094   -1.5760 C.3     1  UNL1       -0.0459
     11 C           0.5360    0.9947   -1.4693 C.3     1  UNL1       -0.0305
     12 C           1.4243   -0.1750   -1.0233 C.3     1  UNL1        0.0000
     13 C           0.3640   -0.3037    1.9039 C.3     1  UNL1       -0.0115
     14 C          -1.3080    0.5460    0.1607 C.ar    1  UNL1       -0.0372
     15 C           5.0935    0.2954   -0.3313 C.3     1  UNL1       -0.0584
     16 C          -0.9666   -0.3589    1.1910 C.ar    1  UNL1       -0.0421
     17 C          -0.9914    2.8902   -0.8175 C.3     1  UNL1       -0.0552
     18 C           1.6714    3.0907    0.6020 C.3     1  UNL1       -0.0602
     19 C          -2.5644    0.3991   -0.4571 C.ar    1  UNL1       -0.0457
     20 C          -1.8880   -1.3384    1.6016 C.ar    1  UNL1       -0.0575
     21 C          -3.4674   -0.5834   -0.0446 C.ar    1  UNL1        0.0368
     22 C          -3.1318   -1.4490    0.9880 C.ar    1  UNL1       -0.0494
     23 C          -4.7596   -0.7047   -0.7015 C.2     1  UNL1        0.2415
     24 H           2.0989    0.9296    2.1022 H       1  UNL1        0.0469
     25 H           0.0557    2.3041    1.7278 H       1  UNL1        0.0322
     26 H           3.4331   -0.8189    1.5810 H       1  UNL1        0.0432
     27 H           2.5492   -1.9099    0.5368 H       1  UNL1        0.0432
     28 H           4.6998   -3.1453    0.1453 H       1  UNL1        0.0271
     29 H           6.1479   -2.2538   -0.4918 H       1  UNL1        0.0271
     30 H           4.7967   -1.4511   -2.4461 H       1  UNL1        0.0271
     31 H           3.3669   -2.3760   -1.8139 H       1  UNL1        0.0271
     32 H           1.1744    1.7667   -1.9185 H       1  UNL1        0.0286
     33 H          -0.1253    0.6477   -2.2744 H       1  UNL1        0.0286
     34 H           0.8153   -1.0743   -0.8708 H       1  UNL1        0.0427
     35 H           2.0858   -0.3897   -1.8680 H       1  UNL1        0.0427
     36 H           0.1603    0.0239    2.9329 H       1  UNL1        0.0328
     37 H           0.7840   -1.3134    1.9800 H       1  UNL1        0.0328
     38 H           4.5412    1.0903   -0.8431 H       1  UNL1        0.0235
     39 H           6.0488    0.1755   -0.8546 H       1  UNL1        0.0235
     40 H           5.3164    0.6285    0.6879 H       1  UNL1        0.0235
     41 H          -0.2709    3.6518   -1.1321 H       1  UNL1        0.0238
     42 H          -1.6280    3.3274   -0.0399 H       1  UNL1        0.0238
     43 H          -1.6142    2.7034   -1.6984 H       1  UNL1        0.0238
     44 H           2.2762    2.9108   -0.2910 H       1  UNL1        0.0233
     45 H           2.3582    3.2029    1.4486 H       1  UNL1        0.0233
     46 H           1.1641    4.0527    0.4829 H       1  UNL1        0.0233
     47 H          -2.8409    1.0496   -1.2812 H       1  UNL1        0.0628
     48 H          -1.6312   -2.0250    2.4053 H       1  UNL1        0.0621
     49 H          -3.7798   -2.2317    1.3625 H       1  UNL1        0.0625
     50 H          -5.4370   -2.3579    0.4927 H       1  UNL1        0.1453
     51 H          -6.5257   -1.8133   -0.7038 H       1  UNL1        0.1453
@<TRIPOS>BOND
     1     1    23    2
     2     2     6    1
     3     2     8    1
     4     2    12    1
     5     3    23   am
     6     3    50    1
     7     3    51    1
     8     4     8    1
     9     4     9    1
    10     4    10    1
    11     4    15    1
    12     5     7    1
    13     5    11    1
    14     5    14    1
    15     5    17    1
    16     6     7    1
    17     6    13    1
    18     6    24    1
    19     7    18    1
    20     7    25    1
    21     8    26    1
    22     8    27    1
    23     9    10    1
    24     9    28    1
    25     9    29    1
    26    10    30    1
    27    10    31    1
    28    11    12    1
    29    11    32    1
    30    11    33    1
    31    12    34    1
    32    12    35    1
    33    13    16    1
    34    13    36    1
    35    13    37    1
    36    14    16   ar
    37    14    19   ar
    38    15    38    1
    39    15    39    1
    40    15    40    1
    41    16    20   ar
    42    17    41    1
    43    17    42    1
    44    17    43    1
    45    18    44    1
    46    18    45    1
    47    18    46    1
    48    19    21   ar
    49    19    47    1
    50    20    22   ar
    51    20    48    1
    52    21    22   ar
    53    21    23    1
    54    22    49    1
@<TRIPOS>MOLECULE
129627924
 46 50 0 0 0
SMALL
GASTEIGER

@<TRIPOS>ATOM
      1 O          -1.9933   -0.2086   -0.9447 O.3     1  UNL1       -0.4779
      2 O          -3.2025    1.4264    0.6764 O.3     1  UNL1       -0.3808
      3 O          -2.8796   -2.9258   -0.5584 O.3     1  UNL1       -0.5033
      4 N           3.2019    0.7327   -0.3911 N.3     1  UNL1       -0.3015
      5 C           0.2838    0.6204   -0.5339 C.3     1  UNL1        0.0508
      6 C          -1.2232    1.0454   -0.7391 C.3     1  UNL1        0.1499
      7 C           1.0469    1.2813    0.6347 C.3     1  UNL1        0.0066
      8 C           2.3896    0.4999    0.8243 C.3     1  UNL1        0.0213
      9 C           1.1621    0.6765   -1.8085 C.3     1  UNL1       -0.0260
     10 C           0.0578   -0.8096   -0.1432 C.ar    1  UNL1        0.0119
     11 C          -1.8314    1.8117    0.5092 C.3     1  UNL1        0.1213
     12 C           2.1668   -1.0087    1.1772 C.3     1  UNL1       -0.0110
     13 C           2.5993    0.1744   -1.6021 C.3     1  UNL1       -0.0001
     14 C           0.9238   -1.6140    0.5810 C.ar    1  UNL1       -0.0383
     15 C           0.2024    1.3336    1.8833 C.2     1  UNL1       -0.0796
     16 C          -1.2137   -1.2192   -0.4644 C.ar    1  UNL1        0.1668
     17 C          -1.4827    1.8110   -2.0519 C.3     1  UNL1       -0.0210
     18 C          -1.1223    1.5273    1.8147 C.2     1  UNL1       -0.0529
     19 C          -1.8309    3.3459    0.3564 C.3     1  UNL1       -0.0286
     20 C           0.5236   -2.9280    0.8374 C.ar    1  UNL1       -0.0546
     21 C           4.5937    0.3177   -0.2474 C.3     1  UNL1       -0.0124
     22 C          -1.6322   -2.5115   -0.2244 C.ar    1  UNL1        0.1588
     23 C          -0.7398   -3.3788    0.4144 C.ar    1  UNL1       -0.0162
     24 H           1.2900    2.3230    0.3780 H       1  UNL1        0.0368
     25 H           2.9279    0.9603    1.6646 H       1  UNL1        0.0472
     26 H           1.2223    1.7175   -2.1518 H       1  UNL1        0.0288
     27 H           0.7153    0.0934   -2.6235 H       1  UNL1        0.0288
     28 H           2.0644   -1.0752    2.2690 H       1  UNL1        0.0329
     29 H           3.0352   -1.6208    0.9146 H       1  UNL1        0.0329
     30 H           2.6163   -0.9222   -1.5876 H       1  UNL1        0.0427
     31 H           3.1862    0.4763   -2.4789 H       1  UNL1        0.0427
     32 H           0.6791    1.2255    2.8526 H       1  UNL1        0.0573
     33 H          -2.5461    2.0606   -2.1484 H       1  UNL1        0.0269
     34 H          -1.2562    1.1946   -2.9290 H       1  UNL1        0.0269
     35 H          -0.9003    2.7346   -2.1164 H       1  UNL1        0.0269
     36 H          -1.6893    1.5817    2.7405 H       1  UNL1        0.0598
     37 H          -2.5207    3.6702   -0.4305 H       1  UNL1        0.0262
     38 H          -0.8327    3.7376    0.1342 H       1  UNL1        0.0262
     39 H          -2.1885    3.8370    1.2709 H       1  UNL1        0.0262
     40 H           1.1695   -3.5998    1.3965 H       1  UNL1        0.0622
     41 H           5.0416    0.7592    0.6496 H       1  UNL1        0.0391
     42 H           5.1842    0.6783   -1.0973 H       1  UNL1        0.0391
     43 H           4.7136   -0.7689   -0.1957 H       1  UNL1        0.0391
     44 H          -3.5817    1.9359    1.4130 H       1  UNL1        0.2108
     45 H          -1.0316   -4.4029    0.6346 H       1  UNL1        0.0655
     46 H          -2.9812   -3.8578   -0.2995 H       1  UNL1        0.2923
@<TRIPOS>BOND
     1     1     6    1
     2     1    16    1
     3     2    11    1
     4     2    44    1
     5     3    22    1
     6     3    46    1
     7     4     8    1
     8     4    13    1
     9     4    21    1
    10     5     6    1
    11     5     7    1
    12     5     9    1
    13     5    10    1
    14     6    11    1
    15     6    17    1
    16     7     8    1
    17     7    15    1
    18     7    24    1
    19     8    12    1
    20     8    25    1
    21     9    13    1
    22     9    26    1
    23     9    27    1
    24    10    14   ar
    25    10    16   ar
    26    11    18    1
    27    11    19    1
    28    12    14    1
    29    12    28    1
    30    12    29    1
    31    13    30    1
    32    13    31    1
    33    14    20   ar
    34    15    18    2
    35    15    32    1
    36    16    22   ar
    37    17    33    1
    38    17    34    1
    39    17    35    1
    40    18    36    1
    41    19    37    1
    42    19    38    1
    43    19    39    1
    44    20    23   ar
    45    20    40    1
    46    21    41    1
    47    21    42    1
    48    21    43    1
    49    22    23   ar
    50    23    45    1
@<TRIPOS>MOLECULE
129674894
 52 56 0 0 0
SMALL
GASTEIGER

@<TRIPOS>ATOM
      1 SI         -4.6727   -0.4744   -0.1166 Si      1  UNL1        0.0000
      2 O          -0.6470    1.3809   -1.1707 O.3     1  UNL1        0.0000
      3 O          -0.4335    3.5922    0.2018 O.3     1  UNL1        0.0000
      4 O          -3.0963    0.0104   -0.4267 O.3     1  UNL1        0.0000
      5 N           3.8364   -1.2587   -0.4999 N.3     1  UNL1        0.0000
      6 C           1.6033    0.5867   -0.6837 C.3     1  UNL1        0.0000
      7 C           2.7210    0.7412    0.3589 C.3     1  UNL1        0.0000
      8 C           3.2045   -0.7009    0.7202 C.3     1  UNL1        0.0000
      9 C           0.7432    1.8311   -1.0060 C.3     1  UNL1        0.0000
     10 C           2.1726   -0.0890   -1.9468 C.3     1  UNL1        0.0000
     11 C           0.5216   -0.2561   -0.0929 C.ar    1  UNL1        0.0000
     12 C           2.0661   -1.5849    1.3363 C.3     1  UNL1        0.0000
     13 C           2.9191   -1.3968   -1.6355 C.3     1  UNL1        0.0000
     14 C           0.6909   -1.3058    0.7920 C.ar    1  UNL1        0.0000
     15 C           0.8379    2.9665    0.0465 C.3     1  UNL1        0.0000
     16 C           2.2710    1.5670    1.5370 C.2     1  UNL1        0.0000
     17 C          -0.7195    0.2146   -0.4581 C.ar    1  UNL1        0.0000
     18 C           1.3940    2.5711    1.3886 C.2     1  UNL1        0.0000
     19 C          -0.4598   -1.9722    1.2167 C.ar    1  UNL1        0.0000
     20 C           4.5753   -2.4937   -0.2586 C.3     1  UNL1        0.0000
     21 C          -1.8686   -0.4315   -0.0587 C.ar    1  UNL1        0.0000
     22 C          -1.7293   -1.5479    0.7759 C.ar    1  UNL1        0.0000
     23 C          -5.8823    0.6695   -1.0058 C.3     1  UNL1        0.0000
     24 C          -4.9843   -2.2223   -0.7347 C.3     1  UNL1        0.0000
     25 C          -5.0636   -0.3971    1.7207 C.3     1  UNL1        0.0000
     26 H           3.5687    1.2866   -0.0830 H       1  UNL1        0.0000
     27 H           3.9953   -0.6086    1.4776 H       1  UNL1        0.0000
     28 H           1.0298    2.2565   -1.9765 H       1  UNL1        0.0000
     29 H           2.8707    0.6059   -2.4330 H       1  UNL1        0.0000
     30 H           1.3814   -0.2988   -2.6782 H       1  UNL1        0.0000
     31 H           2.0340   -1.3712    2.4134 H       1  UNL1        0.0000
     32 H           2.2891   -2.6521    1.2421 H       1  UNL1        0.0000
     33 H           2.1974   -2.2045   -1.4610 H       1  UNL1        0.0000
     34 H           3.4844   -1.6796   -2.5324 H       1  UNL1        0.0000
     35 H           1.5149    3.7341   -0.3507 H       1  UNL1        0.0000
     36 H           2.6994    1.3691    2.5146 H       1  UNL1        0.0000
     37 H           1.1321    3.1712    2.2554 H       1  UNL1        0.0000
     38 H          -0.3870   -2.8055    1.9106 H       1  UNL1        0.0000
     39 H           5.2768   -2.3728    0.5740 H       1  UNL1        0.0000
     40 H           5.1786   -2.7501   -1.1369 H       1  UNL1        0.0000
     41 H           3.9233   -3.3457   -0.0422 H       1  UNL1        0.0000
     42 H          -2.5842   -2.1059    1.1433 H       1  UNL1        0.0000
     43 H          -0.3258    4.3424    0.8112 H       1  UNL1        0.0000
     44 H          -6.9142    0.3631   -0.8109 H       1  UNL1        0.0000
     45 H          -5.7101    0.6414   -2.0856 H       1  UNL1        0.0000
     46 H          -5.7556    1.7001   -0.6617 H       1  UNL1        0.0000
     47 H          -6.0358   -2.4929   -0.5996 H       1  UNL1        0.0000
     48 H          -4.7456   -2.2990   -1.7996 H       1  UNL1        0.0000
     49 H          -4.3753   -2.9514   -0.1938 H       1  UNL1        0.0000
     50 H          -4.4522   -1.1038    2.2880 H       1  UNL1        0.0000
     51 H          -4.8754    0.6081    2.1092 H       1  UNL1        0.0000
     52 H          -6.1155   -0.6409    1.8977 H       1  UNL1        0.0000
@<TRIPOS>BOND
     1     1     4    1
     2     1    23    1
     3     1    24    1
     4     1    25    1
     5     2     9    1
     6     2    17    1
     7     3    15    1
     8     3    43    1
     9     4    21    1
    10     5     8    1
    11     5    13    1
    12     5    20    1
    13     6     7    1
    14     6     9    1
    15     6    10    1
    16     6    11    1
    17     7     8    1
    18     7    16    1
    19     7    26    1
    20     8    12    1
    21     8    27    1
    22     9    15    1
    23     9    28    1
    24    10    13    1
    25    10    29    1
    26    10    30    1
    27    11    14   ar
    28    11    17   ar
    29    12    14    1
    30    12    31    1
    31    12    32    1
    32    13    33    1
    33    13    34    1
    34    14    19   ar
    35    15    18    1
    36    15    35    1
    37    16    18    2
    38    16    36    1
    39    17    21   ar
    40    18    37    1
    41    19    22   ar
    42    19    38    1
    43    20    39    1
    44    20    40    1
    45    20    41    1
    46    21    22   ar
    47    22    42    1
    48    23    44    1
    49    23    45    1
    50    23    46    1
    51    24    47    1
    52    24    48    1
    53    24    49    1
    54    25    50    1
    55    25    51    1
    56    25    52    1
@<TRIPOS>MOLECULE
139066191
 58 64 0 0 0
SMALL
GASTEIGER

@<TRIPOS>ATOM
      1 O           0.4832   -0.6765    1.0521 O.3     1  UNL1       -0.4810
      2 O          -0.0736   -2.7101   -0.4885 O.3     1  UNL1       -0.3841
      3 O          -1.2218    1.5668    0.3511 O.3     1  UNL1       -0.4186
      4 O          -1.6632    0.4341   -1.6374 O.2     1  UNL1       -0.2445
      5 N           5.6615    0.0979    0.7281 N.3     1  UNL1       -0.3015
      6 C           2.8910   -0.7679    0.6967 C.3     1  UNL1        0.0480
      7 C           3.9261   -1.2685   -0.3222 C.3     1  UNL1        0.0064
      8 C           4.9373   -0.0984   -0.5511 C.3     1  UNL1        0.0213
      9 C           1.6083   -1.6097    0.8918 C.3     1  UNL1        0.1399
     10 C           3.5992   -0.4418    2.0264 C.3     1  UNL1       -0.0263
     11 C           2.2426    0.4588    0.1451 C.ar    1  UNL1        0.0116
     12 C           4.2535    1.1895   -1.1261 C.3     1  UNL1       -0.0110
     13 C           4.8000    0.5012    1.8441 C.3     1  UNL1       -0.0001
     14 C           2.8457    1.4198   -0.6464 C.ar    1  UNL1       -0.0383
     15 C           1.3286   -2.6260   -0.2462 C.3     1  UNL1        0.1110
     16 C           3.2668   -1.7838   -1.5759 C.2     1  UNL1       -0.0799
     17 C           0.8968    0.4729    0.4347 C.ar    1  UNL1        0.1673
     18 C           2.0691   -2.3865   -1.5351 C.2     1  UNL1       -0.0559
     19 C           6.8238    0.9720    0.6094 C.3     1  UNL1       -0.0124
     20 C           2.0575    2.4993   -1.0489 C.ar    1  UNL1       -0.0545
     21 C           0.1010    1.5315    0.0560 C.ar    1  UNL1        0.1737
     22 C           0.6985    2.5621   -0.6809 C.ar    1  UNL1       -0.0153
     23 C          -2.0459    0.9590   -0.6025 C.2     1  UNL1        0.3451
     24 C          -3.4764    1.0371   -0.2112 C.ar    1  UNL1        0.0671
     25 C          -4.2702   -0.1061   -0.0234 C.ar    1  UNL1       -0.0039
     26 C          -4.0127    2.3129   -0.0345 C.ar    1  UNL1       -0.0471
     27 C          -5.6270    0.0469    0.3487 C.ar    1  UNL1       -0.0171
     28 C          -5.3469    2.4635    0.3314 C.ar    1  UNL1       -0.0604
     29 C          -3.7471   -1.3979   -0.1970 C.ar    1  UNL1       -0.0532
     30 C          -6.1500    1.3387    0.5222 C.ar    1  UNL1       -0.0540
     31 C          -6.4208   -1.0963    0.5363 C.ar    1  UNL1       -0.0540
     32 C          -4.5503   -2.5226   -0.0063 C.ar    1  UNL1       -0.0611
     33 C          -5.8846   -2.3721    0.3597 C.ar    1  UNL1       -0.0612
     34 H           4.4788   -2.1223    0.0984 H       1  UNL1        0.0368
     35 H           5.6773   -0.4356   -1.2902 H       1  UNL1        0.0472
     36 H           1.6569   -2.1735    1.8324 H       1  UNL1        0.0772
     37 H           2.9046    0.0057    2.7492 H       1  UNL1        0.0287
     38 H           3.9547   -1.3794    2.4747 H       1  UNL1        0.0287
     39 H           4.2054    1.0735   -2.2175 H       1  UNL1        0.0329
     40 H           4.8565    2.0834   -0.9392 H       1  UNL1        0.0329
     41 H           4.4473    1.5319    1.7148 H       1  UNL1        0.0427
     42 H           5.3775    0.4898    2.7770 H       1  UNL1        0.0427
     43 H           1.6423   -3.6171    0.1068 H       1  UNL1        0.0675
     44 H           3.7937   -1.7013   -2.5215 H       1  UNL1        0.0573
     45 H           1.6506   -2.7849   -2.4549 H       1  UNL1        0.0596
     46 H           7.4748    0.6472   -0.2096 H       1  UNL1        0.0391
     47 H           7.4276    0.9230    1.5227 H       1  UNL1        0.0391
     48 H           6.5546    2.0199    0.4440 H       1  UNL1        0.0391
     49 H           2.4779    3.2849   -1.6711 H       1  UNL1        0.0622
     50 H           0.1016    3.4097   -1.0098 H       1  UNL1        0.0656
     51 H          -0.2220   -3.4028   -1.1548 H       1  UNL1        0.2104
     52 H          -3.4030    3.2007   -0.1835 H       1  UNL1        0.0626
     53 H          -5.7642    3.4569    0.4678 H       1  UNL1        0.0618
     54 H          -2.7099   -1.5669   -0.4713 H       1  UNL1        0.0624
     55 H          -7.1903    1.4801    0.8078 H       1  UNL1        0.0624
     56 H          -7.4663   -1.0024    0.8227 H       1  UNL1        0.0624
     57 H          -4.1330   -3.5163   -0.1411 H       1  UNL1        0.0618
     58 H          -6.5091   -3.2481    0.5086 H       1  UNL1        0.0618
@<TRIPOS>BOND
     1     1     9    1
     2     1    17    1
     3     2    15    1
     4     2    51    1
     5     3    21    1
     6     3    23    1
     7     4    23    2
     8     5     8    1
     9     5    13    1
    10     5    19    1
    11     6     7    1
    12     6     9    1
    13     6    10    1
    14     6    11    1
    15     7     8    1
    16     7    16    1
    17     7    34    1
    18     8    12    1
    19     8    35    1
    20     9    15    1
    21     9    36    1
    22    10    13    1
    23    10    37    1
    24    10    38    1
    25    11    14   ar
    26    11    17   ar
    27    12    14    1
    28    12    39    1
    29    12    40    1
    30    13    41    1
    31    13    42    1
    32    14    20   ar
    33    15    18    1
    34    15    43    1
    35    16    18    2
    36    16    44    1
    37    17    21   ar
    38    18    45    1
    39    19    46    1
    40    19    47    1
    41    19    48    1
    42    20    22   ar
    43    20    49    1
    44    21    22   ar
    45    22    50    1
    46    23    24    1
    47    24    25   ar
    48    24    26   ar
    49    25    27   ar
    50    25    29   ar
    51    26    28   ar
    52    26    52    1
    53    27    30   ar
    54    27    31   ar
    55    28    30   ar
    56    28    53    1
    57    29    32   ar
    58    29    54    1
    59    30    55    1
    60    31    33   ar
    61    31    56    1
    62    32    33   ar
    63    32    57    1
    64    33    58    1
@<TRIPOS>MOLECULE
165361998
 52 56 0 0 0
SMALL
GASTEIGER

@<TRIPOS>ATOM
      1 SI          4.4968   -0.4310    0.0496 Si      1  UNL1        0.0000
      2 O           0.7952    1.0872    1.2963 O.3     1  UNL1        0.0000
      3 O           1.0888    3.1918   -0.2321 O.3     1  UNL1        0.0000
      4 O           3.0129   -0.7175    0.7797 O.3     1  UNL1        0.0000
      5 N          -4.0171   -0.7750    0.3788 N.3     1  UNL1        0.0000
      6 C          -1.5179    0.6746    0.6616 C.3     1  UNL1        0.0000
      7 C          -2.5248    0.9726   -0.4593 C.3     1  UNL1        0.0000
      8 C          -3.2234   -0.3811   -0.8105 C.3     1  UNL1        0.0000
      9 C          -0.4765    1.7650    1.0034 C.3     1  UNL1        0.0000
     10 C          -2.2744    0.1602    1.9024 C.3     1  UNL1        0.0000
     11 C          -0.5627   -0.3653    0.1768 C.ar    1  UNL1        0.0000
     12 C          -2.2154   -1.4676   -1.3212 C.3     1  UNL1        0.0000
     13 C          -3.2115   -1.0159    1.5801 C.3     1  UNL1        0.0000
     14 C          -0.8524   -1.4064   -0.6862 C.ar    1  UNL1        0.0000
     15 C          -0.2857    2.8414   -0.0980 C.3     1  UNL1        0.0000
     16 C          -1.8706    1.6633   -1.6277 C.2     1  UNL1        0.0000
     17 C           0.7131   -0.1022    0.6232 C.ar    1  UNL1        0.0000
     18 C          -0.8386    2.5021   -1.4546 C.2     1  UNL1        0.0000
     19 C           0.1901   -2.2792   -1.0025 C.ar    1  UNL1        0.0000
     20 C          -4.9364   -1.8790    0.1239 C.3     1  UNL1        0.0000
     21 C           1.7554   -0.9541    0.3323 C.ar    1  UNL1        0.0000
     22 C           1.4806   -2.0631   -0.4783 C.ar    1  UNL1        0.0000
     23 C           5.2458   -2.0595   -0.5417 C.3     1  UNL1        0.0000
     24 C           5.7119    0.3494    1.2535 C.3     1  UNL1        0.0000
     25 C           4.3166    0.6892   -1.4497 C.3     1  UNL1        0.0000
     26 H          -3.2931    1.6700   -0.0922 H       1  UNL1        0.0000
     27 H          -3.9376   -0.1881   -1.6230 H       1  UNL1        0.0000
     28 H          -0.7539    2.2849    1.9294 H       1  UNL1        0.0000
     29 H          -2.8734    0.9830    2.3156 H       1  UNL1        0.0000
     30 H          -1.5798   -0.1480    2.6945 H       1  UNL1        0.0000
     31 H          -2.0752   -1.3024   -2.3981 H       1  UNL1        0.0000
     32 H          -2.6248   -2.4771   -1.2167 H       1  UNL1        0.0000
     33 H          -2.6283   -1.9400    1.4825 H       1  UNL1        0.0000
     34 H          -3.8733   -1.1610    2.4433 H       1  UNL1        0.0000
     35 H          -0.8084    3.7495    0.2299 H       1  UNL1        0.0000
     36 H          -2.2754    1.5108   -2.6234 H       1  UNL1        0.0000
     37 H          -0.4321    3.0142   -2.3224 H       1  UNL1        0.0000
     38 H           0.0206   -3.1174   -1.6729 H       1  UNL1        0.0000
     39 H          -5.5522   -1.6786   -0.7597 H       1  UNL1        0.0000
     40 H          -4.4249   -2.8359   -0.0194 H       1  UNL1        0.0000
     41 H          -5.6298   -1.9943    0.9647 H       1  UNL1        0.0000
     42 H           2.2672   -2.7666   -0.7382 H       1  UNL1        0.0000
     43 H           1.1502    3.9378   -0.8531 H       1  UNL1        0.0000
     44 H           4.6354   -2.5029   -1.3331 H       1  UNL1        0.0000
     45 H           5.3132   -2.7713    0.2861 H       1  UNL1        0.0000
     46 H           6.2519   -1.8938   -0.9382 H       1  UNL1        0.0000
     47 H           6.6790    0.5186    0.7709 H       1  UNL1        0.0000
     48 H           5.3325    1.3112    1.6111 H       1  UNL1        0.0000
     49 H           5.8676   -0.3019    2.1184 H       1  UNL1        0.0000
     50 H           3.8912    1.6539   -1.1580 H       1  UNL1        0.0000
     51 H           5.2896    0.8686   -1.9164 H       1  UNL1        0.0000
     52 H           3.6567    0.2341   -2.1942 H       1  UNL1        0.0000
@<TRIPOS>BOND
     1     1     4    1
     2     1    23    1
     3     1    24    1
     4     1    25    1
     5     2     9    1
     6     2    17    1
     7     3    15    1
     8     3    43    1
     9     4    21    1
    10     5     8    1
    11     5    13    1
    12     5    20    1
    13     6     7    1
    14     6     9    1
    15     6    10    1
    16     6    11    1
    17     7     8    1
    18     7    16    1
    19     7    26    1
    20     8    12    1
    21     8    27    1
    22     9    15    1
    23     9    28    1
    24    10    13    1
    25    10    29    1
    26    10    30    1
    27    11    14   ar
    28    11    17   ar
    29    12    14    1
    30    12    31    1
    31    12    32    1
    32    13    33    1
    33    13    34    1
    34    14    19   ar
    35    15    18    1
    36    15    35    1
    37    16    18    2
    38    16    36    1
    39    17    21   ar
    40    18    37    1
    41    19    22   ar
    42    19    38    1
    43    20    39    1
    44    20    40    1
    45    20    41    1
    46    21    22   ar
    47    22    42    1
    48    23    44    1
    49    23    45    1
    50    23    46    1
    51    24    47    1
    52    24    48    1
    53    24    49    1
    54    25    50    1
    55    25    51    1
    56    25    52    1
@<TRIPOS>MOLECULE
158392
 51 56 0 0 0
SMALL
GASTEIGER

@<TRIPOS>ATOM
      1 O          -0.0922   -0.7571    1.2114 O.3     1  UNL1       -0.4810
      2 O          -0.3989   -3.0658    0.0302 O.3     1  UNL1       -0.3841
      3 O          -2.0917    1.1063    0.2312 O.3     1  UNL1       -0.4186
      4 O          -2.4078   -0.3912   -1.5263 O.2     1  UNL1       -0.2445
      5 N           4.9310    0.6152    0.5768 N.3     1  UNL1       -0.3015
      6 N          -5.9590    0.9637    1.3502 N.ar    1  UNL1       -0.2624
      7 C           2.3000   -0.5936    0.7849 C.3     1  UNL1        0.0480
      8 C           3.3759   -1.1137   -0.1808 C.3     1  UNL1        0.0064
      9 C           4.2186    0.1248   -0.6279 C.3     1  UNL1        0.0213
     10 C           1.1442   -1.5513    1.1573 C.3     1  UNL1        0.1399
     11 C           2.9802    0.0299    2.0196 C.3     1  UNL1       -0.0263
     12 C           1.4854    0.4349    0.0723 C.ar    1  UNL1        0.0116
     13 C           3.3601    1.2048   -1.3720 C.3     1  UNL1       -0.0110
     14 C           4.0418    1.0780    1.6470 C.3     1  UNL1       -0.0001
     15 C           1.9422    1.3259   -0.8820 C.ar    1  UNL1       -0.0383
     16 C           0.9834   -2.7642    0.2040 C.3     1  UNL1        0.1110
     17 C           2.7705   -1.9041   -1.3126 C.2     1  UNL1       -0.0799
     18 C           0.1546    0.3219    0.4063 C.ar    1  UNL1        0.1673
     19 C           1.6645   -2.6414   -1.1331 C.2     1  UNL1       -0.0559
     20 C           5.9645    1.6013    0.2790 C.3     1  UNL1       -0.0124
     21 C           1.0110    2.2164   -1.4191 C.ar    1  UNL1       -0.0545
     22 C          -0.7811    1.1948   -0.1038 C.ar    1  UNL1        0.1737
     23 C          -0.3381    2.1620   -1.0150 C.ar    1  UNL1       -0.0153
     24 C          -2.8435    0.2527   -0.5836 C.2     1  UNL1        0.3460
     25 C          -4.2653    0.2077   -0.1562 C.ar    1  UNL1        0.0774
     26 C          -5.1581   -0.5867   -0.8336 C.ar    1  UNL1       -0.0449
     27 C          -4.6806    0.9583    0.9104 C.ar    1  UNL1        0.0415
     28 C          -6.4827   -0.6078   -0.4108 C.ar    1  UNL1       -0.0428
     29 C          -6.8290    0.1784    0.6762 C.ar    1  UNL1        0.0276
     30 H           4.0439   -1.8106    0.3476 H       1  UNL1        0.0368
     31 H           4.9846   -0.2285   -1.3321 H       1  UNL1        0.0472
     32 H           1.2830   -1.9463    2.1720 H       1  UNL1        0.0772
     33 H           3.4645   -0.7700    2.5958 H       1  UNL1        0.0287
     34 H           2.2443    0.4943    2.6886 H       1  UNL1        0.0287
     35 H           3.3101    0.9100   -2.4290 H       1  UNL1        0.0329
     36 H           3.8417    2.1873   -1.3503 H       1  UNL1        0.0329
     37 H           3.5531    2.0206    1.3710 H       1  UNL1        0.0427
     38 H           4.6309    1.2907    2.5480 H       1  UNL1        0.0427
     39 H           1.4332   -3.6415    0.6872 H       1  UNL1        0.0675
     40 H           3.2661   -1.9071   -2.2784 H       1  UNL1        0.0573
     41 H           1.2849   -3.2333   -1.9611 H       1  UNL1        0.0596
     42 H           5.5556    2.5656   -0.0386 H       1  UNL1        0.0391
     43 H           6.6396    1.2360   -0.5026 H       1  UNL1        0.0391
     44 H           6.5843    1.7777    1.1655 H       1  UNL1        0.0391
     45 H           1.3130    2.9395   -2.1720 H       1  UNL1        0.0622
     46 H          -1.0476    2.8620   -1.4503 H       1  UNL1        0.0656
     47 H          -0.7915   -3.1557    0.9153 H       1  UNL1        0.2104
     48 H          -4.8618   -1.1941   -1.6831 H       1  UNL1        0.0627
     49 H          -4.0267    1.6043    1.4850 H       1  UNL1        0.0838
     50 H          -7.2207   -1.2202   -0.9162 H       1  UNL1        0.0633
     51 H          -7.8492    0.1973    1.0452 H       1  UNL1        0.0829
@<TRIPOS>BOND
     1     1    10    1
     2     1    18    1
     3     2    16    1
     4     2    47    1
     5     3    22    1
     6     3    24    1
     7     4    24    2
     8     5     9    1
     9     5    14    1
    10     5    20    1
    11     6    27   ar
    12     6    29   ar
    13     7     8    1
    14     7    10    1
    15     7    11    1
    16     7    12    1
    17     8     9    1
    18     8    17    1
    19     8    30    1
    20     9    13    1
    21     9    31    1
    22    10    16    1
    23    10    32    1
    24    11    14    1
    25    11    33    1
    26    11    34    1
    27    12    15   ar
    28    12    18   ar
    29    13    15    1
    30    13    35    1
    31    13    36    1
    32    14    37    1
    33    14    38    1
    34    15    21   ar
    35    16    19    1
    36    16    39    1
    37    17    19    2
    38    17    40    1
    39    18    22   ar
    40    19    41    1
    41    20    42    1
    42    20    43    1
    43    20    44    1
    44    21    23   ar
    45    21    45    1
    46    22    23   ar
    47    23    46    1
    48    24    25    1
    49    25    26   ar
    50    25    27   ar
    51    26    28   ar
    52    26    48    1
    53    27    49    1
    54    28    29   ar
    55    28    50    1
    56    29    51    1
@<TRIPOS>MOLECULE
632235
 51 55 0 0 0
SMALL
GASTEIGER

@<TRIPOS>ATOM
      1 O           0.8441   -1.6687   -0.3768 O.3     1  UNL1       -0.4781
      2 O          -1.9507   -1.8968   -1.4334 O.3     1  UNL1       -0.3431
      3 O          -1.9106   -2.9203    0.6571 O.3     1  UNL1       -0.3431
      4 O          -4.1105   -1.1477    0.4587 O.2     1  UNL1       -0.5059
      5 O           3.8159   -1.8303   -0.3096 O.3     1  UNL1       -0.4914
      6 N          -1.1051    3.1351   -0.6352 N.3     1  UNL1       -0.3015
      7 C          -0.3305    0.3738   -0.0696 C.3     1  UNL1        0.0509
      8 C          -1.1306    1.1342    0.9663 C.3     1  UNL1        0.0099
      9 C          -0.3486   -1.1147    0.2531 C.3     1  UNL1        0.1716
     10 C          -0.7773    2.6340    0.7176 C.3     1  UNL1        0.0214
     11 C          -0.6868    0.8117   -1.5164 C.3     1  UNL1       -0.0262
     12 C           1.1100    0.5510    0.1446 C.ar    1  UNL1        0.0117
     13 C           0.7871    2.8584    0.9943 C.3     1  UNL1       -0.0110
     14 C          -1.7414   -1.6891   -0.0427 C.3     1  UNL1        0.2672
     15 C          -0.5295    2.3266   -1.7159 C.3     1  UNL1       -0.0001
     16 C           1.6982    1.7148    0.5888 C.ar    1  UNL1       -0.0383
     17 C          -2.5371    0.5619    0.9223 C.2     1  UNL1       -0.0356
     18 C           1.7566   -0.6467   -0.1201 C.ar    1  UNL1        0.1667
     19 C          -2.8049   -0.6900    0.4701 C.2     1  UNL1        0.1533
     20 C           3.0838    1.6733    0.6877 C.ar    1  UNL1       -0.0546
     21 C          -2.5322    3.3676   -0.8343 C.3     1  UNL1       -0.0124
     22 C           3.1247   -0.6964   -0.0457 C.ar    1  UNL1        0.1618
     23 C           3.7876    0.4829    0.3555 C.ar    1  UNL1       -0.0160
     24 C          -1.0035   -2.8085   -1.9708 C.3     1  UNL1        0.0403
     25 C          -1.7493   -2.7452    2.0562 C.3     1  UNL1        0.0403
     26 C           5.2407   -1.7709   -0.2018 C.3     1  UNL1        0.0790
     27 H          -0.7762    0.9155    1.9866 H       1  UNL1        0.0369
     28 H          -0.1413   -1.2259    1.3282 H       1  UNL1        0.0802
     29 H          -1.3069    3.2576    1.4500 H       1  UNL1        0.0472
     30 H          -1.7222    0.5558   -1.7639 H       1  UNL1        0.0287
     31 H          -0.0598    0.2948   -2.2542 H       1  UNL1        0.0287
     32 H           0.9060    2.9929    2.0777 H       1  UNL1        0.0329
     33 H           1.1230    3.7872    0.5172 H       1  UNL1        0.0329
     34 H           0.5352    2.5725   -1.8079 H       1  UNL1        0.0427
     35 H          -0.9559    2.6133   -2.6859 H       1  UNL1        0.0427
     36 H          -3.3439    1.1822    1.3021 H       1  UNL1        0.0610
     37 H           3.6381    2.5427    1.0303 H       1  UNL1        0.0622
     38 H          -3.1141    2.4458   -0.9156 H       1  UNL1        0.0391
     39 H          -2.6928    3.9415   -1.7542 H       1  UNL1        0.0391
     40 H          -2.9491    3.9717   -0.0210 H       1  UNL1        0.0391
     41 H           4.8681    0.5391    0.4571 H       1  UNL1        0.0655
     42 H          -4.0964   -2.0535    0.1042 H       1  UNL1        0.2919
     43 H          -0.1673   -2.2661   -2.4192 H       1  UNL1        0.0525
     44 H          -1.4976   -3.3337   -2.7950 H       1  UNL1        0.0525
     45 H          -0.6565   -3.5722   -1.2681 H       1  UNL1        0.0525
     46 H          -2.3180   -3.5470    2.5401 H       1  UNL1        0.0525
     47 H          -2.1160   -1.8080    2.4809 H       1  UNL1        0.0525
     48 H          -0.7056   -2.9143    2.3403 H       1  UNL1        0.0525
     49 H           5.6272   -2.7608   -0.4644 H       1  UNL1        0.0660
     50 H           5.5541   -1.5631    0.8267 H       1  UNL1        0.0660
     51 H           5.6661   -1.0571   -0.9152 H       1  UNL1        0.0660
@<TRIPOS>BOND
     1     1     9    1
     2     1    18    1
     3     2    14    1
     4     2    24    1
     5     3    14    1
     6     3    25    1
     7     4    19    1
     8     4    42    1
     9     5    22    1
    10     5    26    1
    11     6    10    1
    12     6    15    1
    13     6    21    1
    14     7     8    1
    15     7     9    1
    16     7    11    1
    17     7    12    1
    18     8    10    1
    19     8    17    1
    20     8    27    1
    21     9    14    1
    22     9    28    1
    23    10    13    1
    24    10    29    1
    25    11    15    1
    26    11    30    1
    27    11    31    1
    28    12    16   ar
    29    12    18   ar
    30    13    16    1
    31    13    32    1
    32    13    33    1
    33    14    19    1
    34    15    34    1
    35    15    35    1
    36    16    20   ar
    37    17    19    2
    38    17    36    1
    39    18    22   ar
    40    20    23   ar
    41    20    37    1
    42    21    38    1
    43    21    39    1
    44    21    40    1
    45    22    23   ar
    46    23    41    1
    47    24    43    1
    48    24    44    1
    49    24    45    1
    50    25    46    1
    51    25    47    1
    52    25    48    1
    53    26    49    1
    54    26    50    1
    55    26    51    1
@<TRIPOS>MOLECULE
5491691
 45 49 0 0 0
SMALL
GASTEIGER

@<TRIPOS>ATOM
      1 P          -4.5582    0.6063    0.1148 P.3     1  UNL1        0.5281
      2 O          -0.6581   -1.4073    1.2068 O.3     1  UNL1       -0.4811
      3 O          -0.4586   -3.6065   -0.1871 O.3     1  UNL1       -0.3841
      4 O          -3.1334   -0.0501    0.5272 O.3     1  UNL1       -0.4003
      5 O          -4.6766    0.3233   -1.4735 O.3     1  UNL1       -0.2930
      6 O          -5.6298   -0.4281    0.7475 O.3     1  UNL1       -0.2930
      7 O          -4.7499    2.0340    0.5372 O.2     1  UNL1       -0.2156
      8 N           3.7895    1.2714    0.4574 N.3     1  UNL1       -0.3015
      9 C           1.5748   -0.5923    0.6763 C.3     1  UNL1        0.0480
     10 C           2.6704   -0.7305   -0.3918 C.3     1  UNL1        0.0064
     11 C           3.1350    0.7178   -0.7527 C.3     1  UNL1        0.0213
     12 C           0.7314   -1.8455    1.0079 C.3     1  UNL1        0.1399
     13 C           2.1668    0.0784    1.9316 C.3     1  UNL1       -0.0263
     14 C           0.4742    0.2465    0.1158 C.ar    1  UNL1        0.0116
     15 C           1.9766    1.5975   -1.3370 C.3     1  UNL1       -0.0110
     16 C           2.8964    1.3941    1.6138 C.3     1  UNL1       -0.0001
     17 C           0.6159    1.3039   -0.7647 C.ar    1  UNL1       -0.0383
     18 C           0.8111   -2.9724   -0.0550 C.3     1  UNL1        0.1110
     19 C           2.2008   -1.5512   -1.5658 C.2     1  UNL1       -0.0799
     20 C          -0.7551   -0.2364    0.5047 C.ar    1  UNL1        0.1671
     21 C           1.3348   -2.5629   -1.4059 C.2     1  UNL1       -0.0559
     22 C          -0.5487    1.9647   -1.1589 C.ar    1  UNL1       -0.0545
     23 C           4.5135    2.5139    0.2091 C.3     1  UNL1       -0.0124
     24 C          -1.9176    0.4040    0.1357 C.ar    1  UNL1        0.1738
     25 C          -1.8051    1.5274   -0.6933 C.ar    1  UNL1       -0.0155
     26 H           3.5317   -1.2727    0.0272 H       1  UNL1        0.0368
     27 H           3.9095    0.6372   -1.5280 H       1  UNL1        0.0472
     28 H           1.0428   -2.2763    1.9683 H       1  UNL1        0.0772
     29 H           2.8806   -0.6147    2.3970 H       1  UNL1        0.0287
     30 H           1.3904    0.2767    2.6817 H       1  UNL1        0.0287
     31 H           1.9224    1.3915   -2.4147 H       1  UNL1        0.0329
     32 H           2.1936    2.6657   -1.2398 H       1  UNL1        0.0329
     33 H           2.1650    2.1975    1.4613 H       1  UNL1        0.0427
     34 H           3.4793    1.6745    2.5002 H       1  UNL1        0.0427
     35 H           1.5042   -3.7407    0.3119 H       1  UNL1        0.0675
     36 H           2.6060   -1.3428   -2.5511 H       1  UNL1        0.0573
     37 H           1.0559   -3.1601   -2.2693 H       1  UNL1        0.0596
     38 H          -0.4977    2.8030   -1.8486 H       1  UNL1        0.0622
     39 H           3.8505    3.3624    0.0135 H       1  UNL1        0.0391
     40 H           5.1974    2.4046   -0.6397 H       1  UNL1        0.0391
     41 H           5.1341    2.7685    1.0758 H       1  UNL1        0.0391
     42 H          -2.6752    2.0766   -1.0384 H       1  UNL1        0.0655
     43 H          -0.7446   -3.8747    0.7028 H       1  UNL1        0.2104
     44 H          -5.4395    0.6945   -1.9657 H       1  UNL1        0.2231
     45 H          -6.5831   -0.1989    0.7197 H       1  UNL1        0.2231
@<TRIPOS>BOND
     1     1     4    1
     2     1     5    1
     3     1     6    1
     4     1     7    2
     5     2    12    1
     6     2    20    1
     7     3    18    1
     8     3    43    1
     9     4    24    1
    10     5    44    1
    11     6    45    1
    12     8    11    1
    13     8    16    1
    14     8    23    1
    15     9    10    1
    16     9    12    1
    17     9    13    1
    18     9    14    1
    19    10    11    1
    20    10    19    1
    21    10    26    1
    22    11    15    1
    23    11    27    1
    24    12    18    1
    25    12    28    1
    26    13    16    1
    27    13    29    1
    28    13    30    1
    29    14    17   ar
    30    14    20   ar
    31    15    17    1
    32    15    31    1
    33    15    32    1
    34    16    33    1
    35    16    34    1
    36    17    22   ar
    37    18    21    1
    38    18    35    1
    39    19    21    2
    40    19    36    1
    41    20    24   ar
    42    21    37    1
    43    22    25   ar
    44    22    38    1
    45    23    39    1
    46    23    40    1
    47    23    41    1
    48    24    25   ar
    49    25    42    1
@<TRIPOS>MOLECULE
6429432
 48 52 0 0 0
SMALL
GASTEIGER

@<TRIPOS>ATOM
      1 O          -0.7922   -1.3350    1.1011 O.3     1  UNL1       -0.4810
      2 O          -0.5557   -3.5941   -0.1872 O.3     1  UNL1       -0.3841
      3 O          -3.1765    0.0525    0.1951 O.3     1  UNL1       -0.4221
      4 O          -3.9189    2.2546    0.4536 O.2     1  UNL1       -0.2504
      5 N           3.7677    1.2019    0.5626 N.3     1  UNL1       -0.3015
      6 C           1.4935   -0.5970    0.6979 C.3     1  UNL1        0.0480
      7 C           2.6567   -0.8058   -0.2838 C.3     1  UNL1        0.0064
      8 C           3.1843    0.6148   -0.6679 C.3     1  UNL1        0.0213
      9 C           0.5954   -1.8147    1.0184 C.3     1  UNL1        0.1399
     10 C           2.0146    0.1104    1.9644 C.3     1  UNL1       -0.0263
     11 C           0.4577    0.2444    0.0283 C.ar    1  UNL1        0.0116
     12 C           2.0936    1.4974   -1.3669 C.3     1  UNL1       -0.0110
     13 C           2.7999    1.3938    1.6473 C.3     1  UNL1       -0.0001
     14 C           0.6890    1.2607   -0.8810 C.ar    1  UNL1       -0.0383
     15 C           0.7184   -2.9861    0.0092 C.3     1  UNL1        0.1110
     16 C           2.2479   -1.6626   -1.4547 C.2     1  UNL1       -0.0799
     17 C          -0.8083   -0.1921    0.3482 C.ar    1  UNL1        0.1673
     18 C           1.3458   -2.6456   -1.3165 C.2     1  UNL1       -0.0559
     19 C           4.5406    2.4151    0.3172 C.3     1  UNL1       -0.0124
     20 C          -0.4271    1.9326   -1.3824 C.ar    1  UNL1       -0.0545
     21 C          -1.9245    0.4604   -0.1271 C.ar    1  UNL1        0.1733
     22 C          -1.7242    1.5456   -0.9899 C.ar    1  UNL1       -0.0153
     23 C          -4.1429    1.0795    0.1967 C.2     1  UNL1        0.3122
     24 C          -5.4928    0.5053   -0.1689 C.3     1  UNL1        0.0425
     25 C          -5.6417   -0.9359    0.2861 C.3     1  UNL1       -0.0552
     26 H           3.4716   -1.3508    0.2162 H       1  UNL1        0.0368
     27 H           4.0085    0.4834   -1.3827 H       1  UNL1        0.0472
     28 H           0.8274   -2.2128    2.0147 H       1  UNL1        0.0772
     29 H           2.6752   -0.5799    2.5062 H       1  UNL1        0.0287
     30 H           1.1935    0.3583    2.6494 H       1  UNL1        0.0287
     31 H           2.1091    1.2483   -2.4367 H       1  UNL1        0.0329
     32 H           2.3322    2.5631   -1.2969 H       1  UNL1        0.0329
     33 H           2.1029    2.2077    1.4118 H       1  UNL1        0.0427
     34 H           3.3270    1.6964    2.5609 H       1  UNL1        0.0427
     35 H           1.3632   -3.7551    0.4542 H       1  UNL1        0.0675
     36 H           2.7262   -1.5050   -2.4164 H       1  UNL1        0.0573
     37 H           1.1117   -3.2710   -2.1732 H       1  UNL1        0.0596
     38 H           3.9159    3.2707    0.0419 H       1  UNL1        0.0391
     39 H           5.2787    2.2543   -0.4762 H       1  UNL1        0.0391
     40 H           5.1060    2.6901    1.2149 H       1  UNL1        0.0391
     41 H          -0.3058    2.7313   -2.1094 H       1  UNL1        0.0622
     42 H          -2.5472    2.0680   -1.4710 H       1  UNL1        0.0656
     43 H          -0.9107   -3.8177    0.6903 H       1  UNL1        0.2104
     44 H          -5.6231    0.5838   -1.2524 H       1  UNL1        0.0375
     45 H          -6.2584    1.1150    0.3228 H       1  UNL1        0.0375
     46 H          -5.4073   -1.0450    1.3503 H       1  UNL1        0.0235
     47 H          -6.6711   -1.2738    0.1285 H       1  UNL1        0.0235
     48 H          -4.9864   -1.6074   -0.2787 H       1  UNL1        0.0235
@<TRIPOS>BOND
     1     1     9    1
     2     1    17    1
     3     2    15    1
     4     2    43    1
     5     3    21    1
     6     3    23    1
     7     4    23    2
     8     5     8    1
     9     5    13    1
    10     5    19    1
    11     6     7    1
    12     6     9    1
    13     6    10    1
    14     6    11    1
    15     7     8    1
    16     7    16    1
    17     7    26    1
    18     8    12    1
    19     8    27    1
    20     9    15    1
    21     9    28    1
    22    10    13    1
    23    10    29    1
    24    10    30    1
    25    11    14   ar
    26    11    17   ar
    27    12    14    1
    28    12    31    1
    29    12    32    1
    30    13    33    1
    31    13    34    1
    32    14    20   ar
    33    15    18    1
    34    15    35    1
    35    16    18    2
    36    16    36    1
    37    17    21   ar
    38    18    37    1
    39    19    38    1
    40    19    39    1
    41    19    40    1
    42    20    22   ar
    43    20    41    1
    44    21    22   ar
    45    22    42    1
    46    23    24    1
    47    24    25    1
    48    24    44    1
    49    24    45    1
    50    25    46    1
    51    25    47    1
    52    25    48    1
@<TRIPOS>MOLECULE
10860472
 47 51 0 0 0
SMALL
GASTEIGER

@<TRIPOS>ATOM
      1 O          -1.0953   -1.2743    0.9196 O.3     1  UNL1       -0.4811
      2 O          -0.7020   -3.5923   -0.2168 O.3     1  UNL1       -0.3841
      3 O          -3.3672    0.0406   -0.3215 O.3     1  UNL1       -0.4625
      4 O          -5.5493    0.7174    0.3340 O.3     1  UNL1       -0.3472
      5 N           3.4838    1.2812    0.7757 N.3     1  UNL1       -0.3015
      6 C           1.2179   -0.5330    0.7424 C.3     1  UNL1        0.0480
      7 C           2.4867   -0.7780   -0.0886 C.3     1  UNL1        0.0064
      8 C           3.0477    0.6271   -0.4818 C.3     1  UNL1        0.0213
      9 C           0.2950   -1.7426    1.0200 C.3     1  UNL1        0.1399
     10 C           1.5873    0.2424    2.0223 C.3     1  UNL1       -0.0263
     11 C           0.2612    0.2628   -0.0828 C.ar    1  UNL1        0.0116
     12 C           2.0398    1.4620   -1.3445 C.3     1  UNL1       -0.0110
     13 C           2.3973    1.5167    1.7319 C.3     1  UNL1       -0.0001
     14 C           0.5899    1.2349   -1.0103 C.ar    1  UNL1       -0.0383
     15 C           0.5384   -2.9616    0.0922 C.3     1  UNL1        0.1110
     16 C           2.2186   -1.6966   -1.2533 C.2     1  UNL1       -0.0799
     17 C          -1.0308   -0.1707    0.1126 C.ar    1  UNL1        0.1667
     18 C           1.3115   -2.6810   -1.1690 C.2     1  UNL1       -0.0559
     19 C          -0.4648    1.8689   -1.6691 C.ar    1  UNL1       -0.0546
     20 C           4.2736    2.4888    0.5585 C.3     1  UNL1       -0.0124
     21 C          -2.0886    0.4453   -0.5193 C.ar    1  UNL1        0.1653
     22 C          -1.7963    1.4881   -1.4077 C.ar    1  UNL1       -0.0159
     23 C          -4.4031    1.0213   -0.4684 C.3     1  UNL1        0.1906
     24 C          -5.2512    0.7323    1.7239 C.3     1  UNL1        0.0402
     25 H           3.2418   -1.2886    0.5281 H       1  UNL1        0.0368
     26 H           3.9488    0.4691   -1.0905 H       1  UNL1        0.0472
     27 H           0.4137   -2.0879    2.0552 H       1  UNL1        0.0772
     28 H           2.1851   -0.4128    2.6702 H       1  UNL1        0.0287
     29 H           0.6921    0.5155    2.5958 H       1  UNL1        0.0287
     30 H           2.1786    1.1601   -2.3915 H       1  UNL1        0.0329
     31 H           2.2635    2.5324   -1.3020 H       1  UNL1        0.0329
     32 H           1.7278    2.3103    1.3775 H       1  UNL1        0.0427
     33 H           2.8151    1.8702    2.6830 H       1  UNL1        0.0427
     34 H           1.1319   -3.7005    0.6463 H       1  UNL1        0.0675
     35 H           2.8029   -1.5821   -2.1610 H       1  UNL1        0.0573
     36 H           1.1799   -3.3509   -2.0139 H       1  UNL1        0.0596
     37 H          -0.2658    2.6375   -2.4112 H       1  UNL1        0.0622
     38 H           3.6804    3.3229    0.1707 H       1  UNL1        0.0391
     39 H           5.0984    2.2965   -0.1363 H       1  UNL1        0.0391
     40 H           4.7313    2.8145    1.4995 H       1  UNL1        0.0391
     41 H          -2.5764    1.9953   -1.9697 H       1  UNL1        0.0655
     42 H          -1.1534   -3.7760    0.6247 H       1  UNL1        0.2104
     43 H          -4.0646    2.0284   -0.1932 H       1  UNL1        0.1017
     44 H          -4.7335    1.0263   -1.5122 H       1  UNL1        0.1017
     45 H          -4.8546    1.7073    2.0229 H       1  UNL1        0.0525
     46 H          -4.5389   -0.0589    1.9764 H       1  UNL1        0.0525
     47 H          -6.1779    0.5500    2.2747 H       1  UNL1        0.0525
@<TRIPOS>BOND
     1     1     9    1
     2     1    17    1
     3     2    15    1
     4     2    42    1
     5     3    21    1
     6     3    23    1
     7     4    23    1
     8     4    24    1
     9     5     8    1
    10     5    13    1
    11     5    20    1
    12     6     7    1
    13     6     9    1
    14     6    10    1
    15     6    11    1
    16     7     8    1
    17     7    16    1
    18     7    25    1
    19     8    12    1
    20     8    26    1
    21     9    15    1
    22     9    27    1
    23    10    13    1
    24    10    28    1
    25    10    29    1
    26    11    14   ar
    27    11    17   ar
    28    12    14    1
    29    12    30    1
    30    12    31    1
    31    13    32    1
    32    13    33    1
    33    14    19   ar
    34    15    18    1
    35    15    34    1
    36    16    18    2
    37    16    35    1
    38    17    21   ar
    39    18    36    1
    40    19    22   ar
    41    19    37    1
    42    20    38    1
    43    20    39    1
    44    20    40    1
    45    21    22   ar
    46    22    41    1
    47    23    43    1
    48    23    44    1
    49    24    45    1
    50    24    46    1
    51    24    47    1
@<TRIPOS>MOLECULE
124037291
 60 64 0 0 0
SMALL
GASTEIGER

@<TRIPOS>ATOM
      1 O          -0.5130   -1.9363   -1.7849 O.3     1  UNL1       -0.4813
      2 O          -2.9662   -1.1526    2.0274 O.3     1  UNL1       -0.3860
      3 O           1.2907   -1.8348    0.2377 O.3     1  UNL1       -0.3706
      4 O           1.1992   -0.5780   -3.7293 O.3     1  UNL1       -0.5033
      5 O           3.6556   -0.5326    0.8985 O.3     1  UNL1       -0.3752
      6 O           3.6244    2.2522    0.6304 O.3     1  UNL1       -0.3807
      7 N          -3.7809    1.1727    0.7672 N.3     1  UNL1       -0.2993
      8 C          -1.8421   -0.8029   -0.1113 C.3     1  UNL1        0.0701
      9 C          -1.9593   -0.3710    1.3574 C.3     1  UNL1        0.0951
     10 C          -1.0781   -2.1038   -0.4351 C.3     1  UNL1        0.1387
     11 C          -2.4099    1.1282    1.3429 C.3     1  UNL1        0.0438
     12 C          -3.2381   -0.7330   -0.7806 C.3     1  UNL1       -0.0242
     13 C          -0.9381    0.1133   -0.8596 C.ar    1  UNL1        0.0137
     14 C          -0.6731   -0.6483    2.1486 C.3     1  UNL1       -0.0191
     15 C           0.0571   -2.4830    0.5561 C.3     1  UNL1        0.0965
     16 C          -1.3723    2.0584    0.6220 C.3     1  UNL1       -0.0089
     17 C          -0.2650   -2.1247    2.0062 C.3     1  UNL1       -0.0204
     18 C          -3.8954    0.6508   -0.5998 C.3     1  UNL1        0.0000
     19 C          -0.7389    1.4557   -0.6039 C.ar    1  UNL1       -0.0382
     20 C          -0.2834   -0.5782   -1.8608 C.ar    1  UNL1        0.1664
     21 C          -4.4292    2.4727    0.8996 C.3     1  UNL1       -0.0124
     22 C           0.1168    2.1361   -1.4697 C.ar    1  UNL1       -0.0546
     23 C           0.5504    0.0776   -2.7367 C.ar    1  UNL1        0.1588
     24 C           0.7401    1.4534   -2.5383 C.ar    1  UNL1       -0.0162
     25 C           2.3985   -2.5638    0.7403 C.3     1  UNL1        0.0715
     26 C           3.6784   -1.8470    0.3553 C.3     1  UNL1        0.0711
     27 C           4.8347    0.1877    0.5680 C.3     1  UNL1        0.0711
     28 C           4.7523    1.5761    1.1727 C.3     1  UNL1        0.0706
     29 C           3.4848    3.5551    1.1798 C.3     1  UNL1        0.0365
     30 H          -1.7893   -2.9391   -0.4711 H       1  UNL1        0.0769
     31 H          -2.4988    1.4639    2.3851 H       1  UNL1        0.0494
     32 H          -3.8900   -1.4982   -0.3391 H       1  UNL1        0.0288
     33 H          -3.1878   -0.9604   -1.8535 H       1  UNL1        0.0288
     34 H          -0.8399   -0.4411    3.2132 H       1  UNL1        0.0294
     35 H           0.1541   -0.0057    1.8287 H       1  UNL1        0.0294
     36 H           0.2020   -3.5678    0.4651 H       1  UNL1        0.0633
     37 H          -0.5634    2.2688    1.3342 H       1  UNL1        0.0329
     38 H          -1.8159    3.0264    0.3688 H       1  UNL1        0.0329
     39 H           0.5715   -2.3087    2.6848 H       1  UNL1        0.0292
     40 H          -1.0798   -2.7691    2.3586 H       1  UNL1        0.0292
     41 H          -3.4669    1.3579   -1.3210 H       1  UNL1        0.0427
     42 H          -4.9556    0.5516   -0.8645 H       1  UNL1        0.0427
     43 H          -3.1032   -0.7682    2.9101 H       1  UNL1        0.2103
     44 H          -4.3680    2.8376    1.9306 H       1  UNL1        0.0391
     45 H          -5.4961    2.3883    0.6637 H       1  UNL1        0.0391
     46 H          -4.0006    3.2307    0.2365 H       1  UNL1        0.0391
     47 H           0.3218    3.1930   -1.3215 H       1  UNL1        0.0622
     48 H           1.4028    2.0126   -3.1954 H       1  UNL1        0.0655
     49 H           2.3630   -2.6359    1.8301 H       1  UNL1        0.0583
     50 H           2.4111   -3.5736    0.3145 H       1  UNL1        0.0583
     51 H           1.7428    0.0596   -4.2234 H       1  UNL1        0.2923
     52 H           3.7457   -1.7763   -0.7367 H       1  UNL1        0.0583
     53 H           4.5458   -2.3966    0.7371 H       1  UNL1        0.0583
     54 H           4.9107    0.2638   -0.5229 H       1  UNL1        0.0583
     55 H           5.7141   -0.3366    0.9578 H       1  UNL1        0.0583
     56 H           5.6657    2.1373    0.9472 H       1  UNL1        0.0582
     57 H           4.6314    1.4996    2.2596 H       1  UNL1        0.0582
     58 H           2.6082    4.0265    0.7271 H       1  UNL1        0.0524
     59 H           4.3653    4.1639    0.9528 H       1  UNL1        0.0524
     60 H           3.3315    3.5010    2.2619 H       1  UNL1        0.0524
@<TRIPOS>BOND
     1     1    10    1
     2     1    20    1
     3     2     9    1
     4     2    43    1
     5     3    15    1
     6     3    25    1
     7     4    23    1
     8     4    51    1
     9     5    26    1
    10     5    27    1
    11     6    28    1
    12     6    29    1
    13     7    11    1
    14     7    18    1
    15     7    21    1
    16     8     9    1
    17     8    10    1
    18     8    12    1
    19     8    13    1
    20     9    11    1
    21     9    14    1
    22    10    15    1
    23    10    30    1
    24    11    16    1
    25    11    31    1
    26    12    18    1
    27    12    32    1
    28    12    33    1
    29    13    19   ar
    30    13    20   ar
    31    14    17    1
    32    14    34    1
    33    14    35    1
    34    15    17    1
    35    15    36    1
    36    16    19    1
    37    16    37    1
    38    16    38    1
    39    17    39    1
    40    17    40    1
    41    18    41    1
    42    18    42    1
    43    19    22   ar
    44    20    23   ar
    45    21    44    1
    46    21    45    1
    47    21    46    1
    48    22    24   ar
    49    22    47    1
    50    23    24   ar
    51    24    48    1
    52    25    26    1
    53    25    49    1
    54    25    50    1
    55    26    52    1
    56    26    53    1
    57    27    28    1
    58    27    54    1
    59    27    55    1
    60    28    56    1
    61    28    57    1
    62    29    58    1
    63    29    59    1
    64    29    60    1
@<TRIPOS>MOLECULE
129670507
 38 41 0 0 0
SMALL
GASTEIGER

@<TRIPOS>ATOM
      1 O          -4.5727   -0.3726    0.9738 O.2     1  UNL1       -0.2957
      2 N           0.9983   -2.6957   -0.6963 N.3     1  UNL1       -0.3126
      3 C           1.3820    0.2270   -0.5754 C.3     1  UNL1        0.0194
      4 C           1.7843   -0.7373    0.5782 C.3     1  UNL1       -0.0119
      5 C           0.8348   -1.9399    0.5642 C.3     1  UNL1        0.0155
      6 C           1.5891   -0.5660   -1.8929 C.3     1  UNL1       -0.0270
      7 C           1.8608   -0.0027    1.9274 C.3     1  UNL1       -0.0443
      8 C          -0.1049    0.6241   -0.4839 C.ar    1  UNL1       -0.0332
      9 C          -0.6207   -1.5180    0.8178 C.3     1  UNL1       -0.0110
     10 C           0.8095   -1.8904   -1.9064 C.3     1  UNL1       -0.0027
     11 C          -1.0339   -0.2197    0.1646 C.ar    1  UNL1       -0.0317
     12 C           2.2995    1.4395   -0.5304 C.2     1  UNL1       -0.0771
     13 C           2.9220    1.1013    1.8758 C.3     1  UNL1       -0.0344
     14 C           2.9805    1.8206    0.5610 C.2     1  UNL1       -0.0871
     15 C          -0.5858    1.7945   -1.1018 C.ar    1  UNL1       -0.0574
     16 C          -2.3891    0.1468    0.2256 C.ar    1  UNL1        0.0177
     17 C          -1.9362    2.1428   -1.0395 C.ar    1  UNL1       -0.0608
     18 C          -2.8366    1.3225   -0.3707 C.ar    1  UNL1       -0.0513
     19 C          -3.3810   -0.6767    0.9087 C.2     1  UNL1        0.1505
     20 H           2.7997   -1.1218    0.3847 H       1  UNL1        0.0328
     21 H           1.1258   -2.6318    1.3646 H       1  UNL1        0.0467
     22 H           2.6574   -0.7876   -2.0261 H       1  UNL1        0.0289
     23 H           1.2887    0.0318   -2.7635 H       1  UNL1        0.0289
     24 H           2.1087   -0.7063    2.7311 H       1  UNL1        0.0272
     25 H           0.8958    0.4441    2.1932 H       1  UNL1        0.0272
     26 H          -1.2735   -2.3352    0.4862 H       1  UNL1        0.0329
     27 H          -0.7560   -1.4075    1.9021 H       1  UNL1        0.0329
     28 H          -0.2579   -1.7049   -2.0709 H       1  UNL1        0.0424
     29 H           1.1430   -2.4819   -2.7668 H       1  UNL1        0.0424
     30 H           0.3563   -3.4874   -0.7116 H       1  UNL1        0.1222
     31 H           2.4157    2.0265   -1.4388 H       1  UNL1        0.0578
     32 H           3.9093    0.6628    2.0660 H       1  UNL1        0.0307
     33 H           2.7332    1.8209    2.6803 H       1  UNL1        0.0307
     34 H           3.6248    2.6932    0.5006 H       1  UNL1        0.0569
     35 H           0.0830    2.4531   -1.6496 H       1  UNL1        0.0621
     36 H          -2.2827    3.0544   -1.5178 H       1  UNL1        0.0618
     37 H          -3.8810    1.6208   -0.3363 H       1  UNL1        0.0624
     38 H          -3.0514   -1.6014    1.4033 H       1  UNL1        0.1081
@<TRIPOS>BOND
     1     1    19    2
     2     2     5    1
     3     2    10    1
     4     2    30    1
     5     3     4    1
     6     3     6    1
     7     3     8    1
     8     3    12    1
     9     4     5    1
    10     4     7    1
    11     4    20    1
    12     5     9    1
    13     5    21    1
    14     6    10    1
    15     6    22    1
    16     6    23    1
    17     7    13    1
    18     7    24    1
    19     7    25    1
    20     8    11   ar
    21     8    15   ar
    22     9    11    1
    23     9    26    1
    24     9    27    1
    25    10    28    1
    26    10    29    1
    27    11    16   ar
    28    12    14    2
    29    12    31    1
    30    13    14    1
    31    13    32    1
    32    13    33    1
    33    14    34    1
    34    15    17   ar
    35    15    35    1
    36    16    18   ar
    37    16    19    1
    38    17    18   ar
    39    17    36    1
    40    18    37    1
    41    19    38    1
@<TRIPOS>MOLECULE
129780007
 54 59 0 0 0
SMALL
GASTEIGER

@<TRIPOS>ATOM
      1 CL          7.5687    0.3767    0.5473 Cl      1  UNL1       -0.0835
      2 O           0.0679    1.0054    1.2340 O.2     1  UNL1       -0.4856
      3 O           0.4644    3.1957   -0.1493 O.3     1  UNL1       -0.3841
      4 O           1.6880   -1.3661    1.5468 O.3     1  UNL1       -0.3732
      5 O           1.3273   -0.3242   -1.7869 O.2     1  UNL1       -0.2885
      6 N          -4.9409   -0.3891    0.3803 N.3     1  UNL1       -0.3015
      7 C          -2.2843    0.7548    0.6629 C.3     1  UNL1        0.0476
      8 C          -3.2253    1.1198   -0.4989 C.3     1  UNL1        0.0063
      9 C          -4.0816   -0.1476   -0.8030 C.3     1  UNL1        0.0213
     10 C          -1.1557    1.7725    0.9812 C.3     1  UNL1        0.1394
     11 C          -1.4452   -0.4103    0.2696 C.2     1  UNL1        0.0068
     12 C          -3.1377    0.4161    1.9023 C.3     1  UNL1       -0.0263
     13 C          -3.2029   -1.3629   -1.2433 C.3     1  UNL1       -0.0114
     14 C          -1.8761   -1.5085   -0.5415 C.2     1  UNL1       -0.0426
     15 C          -4.1975   -0.6591    1.6152 C.3     1  UNL1       -0.0001
     16 C          -0.1869   -0.2200    0.6387 C.2     1  UNL1        0.1418
     17 C          -0.9121    2.8278   -0.1255 C.3     1  UNL1        0.1110
     18 C          -2.4605    1.6622   -1.6804 C.2     1  UNL1       -0.0799
     19 C           0.8973   -1.2095    0.3803 C.3     1  UNL1        0.1884
     20 C          -1.3783    2.4339   -1.5005 C.2     1  UNL1       -0.0559
     21 C          -1.0440   -2.5548   -0.6935 C.2     1  UNL1       -0.0768
     22 C           0.3392   -2.5908   -0.0698 C.3     1  UNL1        0.0093
     23 C          -5.9750   -1.3931    0.1521 C.3     1  UNL1       -0.0124
     24 C           1.7783   -0.6112   -0.6805 C.2     1  UNL1        0.2023
     25 C           3.2163   -0.3663   -0.3747 C.ar    1  UNL1        0.0209
     26 C           4.1627   -1.3589   -0.6292 C.ar    1  UNL1       -0.0498
     27 C           3.6159    0.8564    0.1648 C.ar    1  UNL1       -0.0498
     28 C           5.5085   -1.1291   -0.3440 C.ar    1  UNL1       -0.0427
     29 C           4.9618    1.0863    0.4500 C.ar    1  UNL1       -0.0427
     30 C           5.9080    0.0936    0.1956 C.ar    1  UNL1        0.0410
     31 H          -3.9079    1.9251   -0.1870 H       1  UNL1        0.0368
     32 H          -4.7478    0.0974   -1.6420 H       1  UNL1        0.0472
     33 H          -1.3602    2.3081    1.9171 H       1  UNL1        0.0771
     34 H          -3.6449    1.3289    2.2434 H       1  UNL1        0.0287
     35 H          -2.5080    0.0820    2.7371 H       1  UNL1        0.0287
     36 H          -2.9862   -1.2285   -2.3128 H       1  UNL1        0.0329
     37 H          -3.7662   -2.2999   -1.1773 H       1  UNL1        0.0329
     38 H          -3.7262   -1.6490    1.5826 H       1  UNL1        0.0427
     39 H          -4.8919   -0.6783    2.4646 H       1  UNL1        0.0427
     40 H          -1.4722    3.7331    0.1431 H       1  UNL1        0.0675
     41 H          -2.8165    1.4585   -2.6852 H       1  UNL1        0.0573
     42 H          -0.8729    2.8494   -2.3671 H       1  UNL1        0.0596
     43 H          -1.3383   -3.4010   -1.3076 H       1  UNL1        0.0576
     44 H           0.3024   -3.2809    0.7833 H       1  UNL1        0.0344
     45 H           1.0271   -3.0455   -0.7945 H       1  UNL1        0.0344
     46 H          -6.5416   -1.1706   -0.7587 H       1  UNL1        0.0391
     47 H          -6.6975   -1.3847    0.9761 H       1  UNL1        0.0391
     48 H          -5.5729   -2.4080    0.0720 H       1  UNL1        0.0391
     49 H           0.5747    3.9001   -0.8107 H       1  UNL1        0.2104
     50 H           2.2516   -2.1508    1.4344 H       1  UNL1        0.2113
     51 H           3.8608   -2.3148   -1.0492 H       1  UNL1        0.0625
     52 H           2.8876    1.6368    0.3665 H       1  UNL1        0.0625
     53 H           6.2347   -1.9118   -0.5474 H       1  UNL1        0.0632
     54 H           5.2586    2.0439    0.8702 H       1  UNL1        0.0632
@<TRIPOS>BOND
     1     1    30    1
     2     2    10    1
     3     2    16    1
     4     3    17    1
     5     3    49    1
     6     4    19    1
     7     4    50    1
     8     5    24    2
     9     6     9    1
    10     6    15    1
    11     6    23    1
    12     7     8    1
    13     7    10    1
    14     7    11    1
    15     7    12    1
    16     8     9    1
    17     8    18    1
    18     8    31    1
    19     9    13    1
    20     9    32    1
    21    10    17    1
    22    10    33    1
    23    11    14    1
    24    11    16    2
    25    12    15    1
    26    12    34    1
    27    12    35    1
    28    13    14    1
    29    13    36    1
    30    13    37    1
    31    14    21    2
    32    15    38    1
    33    15    39    1
    34    16    19    1
    35    17    20    1
    36    17    40    1
    37    18    20    2
    38    18    41    1
    39    19    22    1
    40    19    24    1
    41    20    42    1
    42    21    22    1
    43    21    43    1
    44    22    44    1
    45    22    45    1
    46    23    46    1
    47    23    47    1
    48    23    48    1
    49    24    25    1
    50    25    26   ar
    51    25    27   ar
    52    26    28   ar
    53    26    51    1
    54    27    29   ar
    55    27    52    1
    56    28    30   ar
    57    28    53    1
    58    29    30   ar
    59    29    54    1
@<TRIPOS>MOLECULE
67771035
 54 59 0 0 0
SMALL
GASTEIGER

@<TRIPOS>ATOM
      1 CL          4.1156   -2.6108   -0.9235 Cl      1  UNL1       -0.0828
      2 O           0.0906    1.1954    1.2211 O.2     1  UNL1       -0.4856
      3 O           0.4077    3.3118   -0.2918 O.3     1  UNL1       -0.3841
      4 O           1.8312   -1.0520    1.7367 O.3     1  UNL1       -0.3732
      5 O           1.5214   -0.2495   -1.6676 O.2     1  UNL1       -0.2884
      6 N          -4.8007   -0.5420    0.3167 N.3     1  UNL1       -0.3015
      7 C          -2.2237    0.7713    0.6000 C.3     1  UNL1        0.0476
      8 C          -3.1452    1.0052   -0.6102 C.3     1  UNL1        0.0063
      9 C          -3.9181   -0.3271   -0.8545 C.3     1  UNL1        0.0213
     10 C          -1.1654    1.8718    0.8829 C.3     1  UNL1        0.1394
     11 C          -1.3076   -0.3655    0.3090 C.2     1  UNL1        0.0068
     12 C          -3.0967    0.4637    1.8338 C.3     1  UNL1       -0.0263
     13 C          -2.9582   -1.5146   -1.1880 C.3     1  UNL1       -0.0114
     14 C          -1.6489   -1.5368   -0.4400 C.2     1  UNL1       -0.0426
     15 C          -4.0840   -0.6880    1.5877 C.3     1  UNL1       -0.0001
     16 C          -0.0748   -0.0785    0.7009 C.2     1  UNL1        0.1418
     17 C          -0.9458    2.8662   -0.2836 C.3     1  UNL1        0.1110
     18 C          -2.3742    1.5144   -1.8023 C.2     1  UNL1       -0.0799
     19 C           1.0715   -1.0173    0.5400 C.3     1  UNL1        0.1885
     20 C          -1.3437    2.3581   -1.6425 C.2     1  UNL1       -0.0559
     21 C          -0.7545   -2.5403   -0.4984 C.2     1  UNL1       -0.0768
     22 C           0.6074   -2.4550    0.1661 C.3     1  UNL1        0.0093
     23 C          -5.7683   -1.6173    0.1255 C.3     1  UNL1       -0.0124
     24 C           1.9515   -0.4379   -0.5321 C.2     1  UNL1        0.2036
     25 C           3.3625   -0.0900   -0.2016 C.ar    1  UNL1        0.0391
     26 C           4.4023   -1.0079   -0.3482 C.ar    1  UNL1        0.0515
     27 C           3.6289    1.1970    0.2656 C.ar    1  UNL1       -0.0497
     28 C           5.7088   -0.6388   -0.0277 C.ar    1  UNL1       -0.0427
     29 C           4.9353    1.5661    0.5862 C.ar    1  UNL1       -0.0610
     30 C           5.9753    0.6483    0.4396 C.ar    1  UNL1       -0.0603
     31 H          -3.8822    1.7875   -0.3721 H       1  UNL1        0.0368
     32 H          -4.5693   -0.1760   -1.7268 H       1  UNL1        0.0472
     33 H          -1.4304    2.4535    1.7750 H       1  UNL1        0.0771
     34 H          -3.6655    1.3652    2.0991 H       1  UNL1        0.0287
     35 H          -2.4767    0.2213    2.7067 H       1  UNL1        0.0287
     36 H          -2.7145   -1.4368   -2.2573 H       1  UNL1        0.0329
     37 H          -3.4695   -2.4768   -1.0766 H       1  UNL1        0.0329
     38 H          -4.8036   -0.6932    2.4161 H       1  UNL1        0.0427
     39 H          -3.5566   -1.6487    1.6343 H       1  UNL1        0.0427
     40 H          -1.5647    3.7525   -0.0917 H       1  UNL1        0.0675
     41 H          -2.6850    1.2260   -2.8013 H       1  UNL1        0.0573
     42 H          -0.8346    2.7459   -2.5197 H       1  UNL1        0.0596
     43 H          -0.9806   -3.4399   -1.0634 H       1  UNL1        0.0576
     44 H           0.5831   -3.0902    1.0612 H       1  UNL1        0.0344
     45 H           1.3286   -2.9204   -0.5132 H       1  UNL1        0.0344
     46 H          -6.3164   -1.4874   -0.8141 H       1  UNL1        0.0391
     47 H          -6.5167   -1.5983    0.9259 H       1  UNL1        0.0391
     48 H          -5.3071   -2.6100    0.1243 H       1  UNL1        0.0391
     49 H           0.4997    3.9773   -0.9950 H       1  UNL1        0.2104
     50 H           2.4430   -1.8067    1.6916 H       1  UNL1        0.2113
     51 H           2.8290    1.9224    0.3840 H       1  UNL1        0.0625
     52 H           6.5305   -1.3422   -0.1363 H       1  UNL1        0.0632
     53 H           5.1427    2.5682    0.9499 H       1  UNL1        0.0618
     54 H           6.9924    0.9358    0.6892 H       1  UNL1        0.0618
@<TRIPOS>BOND
     1     1    26    1
     2     2    10    1
     3     2    16    1
     4     3    17    1
     5     3    49    1
     6     4    19    1
     7     4    50    1
     8     5    24    2
     9     6     9    1
    10     6    15    1
    11     6    23    1
    12     7     8    1
    13     7    10    1
    14     7    11    1
    15     7    12    1
    16     8     9    1
    17     8    18    1
    18     8    31    1
    19     9    13    1
    20     9    32    1
    21    10    17    1
    22    10    33    1
    23    11    14    1
    24    11    16    2
    25    12    15    1
    26    12    34    1
    27    12    35    1
    28    13    14    1
    29    13    36    1
    30    13    37    1
    31    14    21    2
    32    15    38    1
    33    15    39    1
    34    16    19    1
    35    17    20    1
    36    17    40    1
    37    18    20    2
    38    18    41    1
    39    19    22    1
    40    19    24    1
    41    20    42    1
    42    21    22    1
    43    21    43    1
    44    22    44    1
    45    22    45    1
    46    23    46    1
    47    23    47    1
    48    23    48    1
    49    24    25    1
    50    25    26   ar
    51    25    27   ar
    52    26    28   ar
    53    27    29   ar
    54    27    51    1
    55    28    30   ar
    56    28    52    1
    57    29    30   ar
    58    29    53    1
    59    30    54    1
@<TRIPOS>MOLECULE
129643963
 60 64 0 0 0
SMALL
GASTEIGER

@<TRIPOS>ATOM
      1 O           0.2619   -0.0375   -0.9928 O.3     1  UNL1       -0.4799
      2 O          -0.7356    1.7104    0.6711 O.3     1  UNL1       -0.4515
      3 O          -0.9129   -2.6432   -0.4818 O.3     1  UNL1       -0.5033
      4 O          -1.2693    3.3392   -0.8707 O.2     1  UNL1       -0.2478
      5 O          -3.9028    2.9557   -0.4735 O.3     1  UNL1       -0.3783
      6 O          -2.7544   -0.1747    0.9233 O.3     1  UNL1       -0.3860
      7 O          -5.4722    0.6692    1.0524 O.3     1  UNL1       -0.3861
      8 O          -4.9398   -1.9508    0.7209 O.3     1  UNL1       -0.3819
      9 O          -7.3944   -2.0805   -0.3974 O.2     1  UNL1       -0.2982
     10 N           5.4821    0.3174   -0.6159 N.3     1  UNL1       -0.3015
     11 C           2.5890    0.5523   -0.5825 C.3     1  UNL1        0.0491
     12 C           3.4839    1.1933    0.4893 C.3     1  UNL1        0.0064
     13 C           4.7260    0.2592    0.6586 C.3     1  UNL1        0.0213
     14 C           1.1539    1.1052   -0.7461 C.3     1  UNL1        0.1509
     15 C           3.3583    0.4842   -1.9165 C.3     1  UNL1       -0.0263
     16 C           2.2228   -0.8225   -0.1293 C.ar    1  UNL1        0.0116
     17 C           4.3385   -1.1845    1.1302 C.3     1  UNL1       -0.0110
     18 C           4.7359   -0.1841   -1.7742 C.3     1  UNL1       -0.0001
     19 C           0.6521    1.9522    0.4525 C.3     1  UNL1        0.1588
     20 C           3.0180   -1.6822    0.6069 C.ar    1  UNL1       -0.0383
     21 C           2.7210    1.4616    1.7614 C.2     1  UNL1       -0.0788
     22 C           0.9144   -1.1097   -0.4469 C.ar    1  UNL1        0.1664
     23 C           1.4205    1.7893    1.7371 C.2     1  UNL1       -0.0439
     24 C           6.8073   -0.2878   -0.5331 C.3     1  UNL1       -0.0124
     25 C           2.4839   -2.9337    0.9185 C.ar    1  UNL1       -0.0546
     26 C           0.3684   -2.3408   -0.1578 C.ar    1  UNL1        0.1588
     27 C           1.1737   -3.2657    0.5192 C.ar    1  UNL1       -0.0162
     28 C          -1.5964    2.4802   -0.0618 C.2     1  UNL1        0.3394
     29 C          -3.0317    2.0923    0.2434 C.3     1  UNL1        0.1800
     30 C          -3.3542    0.6259   -0.0986 C.3     1  UNL1        0.1200
     31 C          -4.8613    0.2970   -0.1833 C.3     1  UNL1        0.1164
     32 C          -5.1369   -1.1909   -0.4569 C.3     1  UNL1        0.1382
     33 C          -6.5499   -1.3960   -0.9656 C.2     1  UNL1        0.1512
     34 H           3.8378    2.1749    0.1394 H       1  UNL1        0.0368
     35 H           5.3701    0.6966    1.4341 H       1  UNL1        0.0472
     36 H           1.0835    1.7302   -1.6457 H       1  UNL1        0.0783
     37 H           3.5017    1.5063   -2.2923 H       1  UNL1        0.0287
     38 H           2.7826   -0.0516   -2.6823 H       1  UNL1        0.0287
     39 H           4.2605   -1.1597    2.2257 H       1  UNL1        0.0329
     40 H           5.1239   -1.9095    0.8952 H       1  UNL1        0.0329
     41 H           4.6173   -1.2735   -1.7229 H       1  UNL1        0.0427
     42 H           5.3016    0.0196   -2.6921 H       1  UNL1        0.0427
     43 H           0.8057    3.0117    0.1997 H       1  UNL1        0.0817
     44 H           3.2482    1.4292    2.7098 H       1  UNL1        0.0574
     45 H           0.9169    2.0206    2.6714 H       1  UNL1        0.0607
     46 H           7.3669    0.1124    0.3194 H       1  UNL1        0.0391
     47 H           7.3903   -0.0431   -1.4283 H       1  UNL1        0.0391
     48 H           6.7738   -1.3782   -0.4452 H       1  UNL1        0.0391
     49 H           3.0633   -3.6505    1.4942 H       1  UNL1        0.0622
     50 H           0.7810   -4.2459    0.7799 H       1  UNL1        0.0655
     51 H          -1.1068   -3.5488   -0.1845 H       1  UNL1        0.2923
     52 H          -3.1941    2.2838    1.3116 H       1  UNL1        0.0738
     53 H          -2.8782    0.3544   -1.0483 H       1  UNL1        0.0652
     54 H          -5.3111    0.9068   -0.9759 H       1  UNL1        0.0650
     55 H          -3.7629    3.8579   -0.1385 H       1  UNL1        0.2106
     56 H          -4.4630   -1.5644   -1.2364 H       1  UNL1        0.0697
     57 H          -3.2309   -0.0019    1.7534 H       1  UNL1        0.2100
     58 H          -6.4260    0.4987    0.9729 H       1  UNL1        0.2100
     59 H          -6.7864   -0.8907   -1.9181 H       1  UNL1        0.1055
     60 H          -5.0158   -2.8900    0.4803 H       1  UNL1        0.2105
@<TRIPOS>BOND
     1     1    14    1
     2     1    22    1
     3     2    19    1
     4     2    28    1
     5     3    26    1
     6     3    51    1
     7     4    28    2
     8     5    29    1
     9     5    55    1
    10     6    30    1
    11     6    57    1
    12     7    31    1
    13     7    58    1
    14     8    32    1
    15     8    60    1
    16     9    33    2
    17    10    13    1
    18    10    18    1
    19    10    24    1
    20    11    12    1
    21    11    14    1
    22    11    15    1
    23    11    16    1
    24    12    13    1
    25    12    21    1
    26    12    34    1
    27    13    17    1
    28    13    35    1
    29    14    19    1
    30    14    36    1
    31    15    18    1
    32    15    37    1
    33    15    38    1
    34    16    20   ar
    35    16    22   ar
    36    17    20    1
    37    17    39    1
    38    17    40    1
    39    18    41    1
    40    18    42    1
    41    19    23    1
    42    19    43    1
    43    20    25   ar
    44    21    23    2
    45    21    44    1
    46    22    26   ar
    47    23    45    1
    48    24    46    1
    49    24    47    1
    50    24    48    1
    51    25    27   ar
    52    25    49    1
    53    26    27   ar
    54    27    50    1
    55    28    29    1
    56    29    30    1
    57    29    52    1
    58    30    31    1
    59    30    53    1
    60    31    32    1
    61    31    54    1
    62    32    33    1
    63    32    56    1
    64    33    59    1
@<TRIPOS>MOLECULE
136409755
 60 65 0 0 0
SMALL
GASTEIGER

@<TRIPOS>ATOM
      1 O          -2.0653   -1.4447   -1.5612 O.3     1  UNL1       -0.4802
      2 O          -2.5700   -3.1901    0.3058 O.3     1  UNL1       -0.3736
      3 O           0.8123   -1.5122   -1.8657 O.3     1  UNL1       -0.5019
      4 O          -4.9777   -3.9620    0.1837 O.2     1  UNL1       -0.2942
      5 O           8.9818   -0.2186    1.3538 O.3     1  UNL1       -0.4771
      6 O           9.0860    0.0134   -0.9050 O.2     1  UNL1       -0.2451
      7 N          -4.1497    3.0833    0.0159 N.3     1  UNL1       -0.3015
      8 N           2.2933    0.5117   -0.5900 N.2     1  UNL1       -0.1455
      9 N           2.7665   -0.1723    0.3465 N.2     1  UNL1       -0.1492
     10 C          -3.3183    0.3501   -0.5053 C.3     1  UNL1        0.0487
     11 C          -3.9473    0.7843    0.8262 C.3     1  UNL1        0.0064
     12 C          -3.3262   -1.1568   -0.8551 C.3     1  UNL1        0.1496
     13 C          -3.5068    2.2641    1.0716 C.3     1  UNL1        0.0213
     14 C          -3.8821    1.2316   -1.6389 C.3     1  UNL1       -0.0263
     15 C          -1.8382    0.5200   -0.4218 C.ar    1  UNL1        0.0117
     16 C          -3.4861   -2.1030    0.3697 C.3     1  UNL1        0.1789
     17 C          -1.9504    2.4212    1.1777 C.3     1  UNL1       -0.0110
     18 C          -3.7364    2.7349   -1.3472 C.3     1  UNL1       -0.0001
     19 C          -1.1641    1.4948    0.2898 C.ar    1  UNL1       -0.0363
     20 C          -3.6098   -0.1610    1.9476 C.2     1  UNL1       -0.0792
     21 C          -1.1938   -0.4963   -1.0924 C.ar    1  UNL1        0.1686
     22 C          -3.3956   -1.4665    1.7285 C.2     1  UNL1       -0.0456
     23 C           0.2295    1.4838    0.2163 C.ar    1  UNL1       -0.0272
     24 C          -4.0483    4.5197    0.2525 C.3     1  UNL1       -0.0124
     25 C          -4.8435   -2.7503    0.3471 C.2     1  UNL1        0.1691
     26 C           0.1796   -0.5213   -1.1880 C.ar    1  UNL1        0.1865
     27 C           0.8936    0.4920   -0.5346 C.ar    1  UNL1        0.1313
     28 C          -6.0294   -1.8426    0.5335 C.3     1  UNL1       -0.0027
     29 C           4.1706   -0.1535    0.2910 C.ar    1  UNL1        0.0862
     30 C           4.8183   -0.0209   -0.9373 C.ar    1  UNL1       -0.0338
     31 C           4.9165   -0.2674    1.4642 C.ar    1  UNL1       -0.0338
     32 C           6.2119   -0.0023   -0.9924 C.ar    1  UNL1       -0.0457
     33 C           6.3101   -0.2489    1.4090 C.ar    1  UNL1       -0.0457
     34 C           6.9579   -0.1162    0.1808 C.ar    1  UNL1        0.0590
     35 C           8.4109   -0.0979    0.1238 C.2     1  UNL1        0.3368
     36 H          -5.0432    0.7815    0.7474 H       1  UNL1        0.0368
     37 H          -4.1163   -1.3660   -1.5878 H       1  UNL1        0.0779
     38 H          -3.9345    2.5862    2.0313 H       1  UNL1        0.0472
     39 H          -4.9481    1.0003   -1.7680 H       1  UNL1        0.0287
     40 H          -3.3971    1.0092   -2.5982 H       1  UNL1        0.0287
     41 H          -1.6678    2.1894    2.2135 H       1  UNL1        0.0329
     42 H          -1.6388    3.4550    0.9987 H       1  UNL1        0.0329
     43 H          -2.7031    3.0514   -1.5362 H       1  UNL1        0.0427
     44 H          -4.3597    3.2766   -2.0697 H       1  UNL1        0.0427
     45 H          -3.5846    0.2199    2.9640 H       1  UNL1        0.0574
     46 H          -3.1890   -2.1074    2.5826 H       1  UNL1        0.0603
     47 H           0.8049    2.2315    0.7574 H       1  UNL1        0.0643
     48 H          -4.3847    4.7740    1.2635 H       1  UNL1        0.0391
     49 H          -4.7037    5.0630   -0.4377 H       1  UNL1        0.0391
     50 H          -3.0320    4.9032    0.1181 H       1  UNL1        0.0391
     51 H          -2.5948   -3.5500   -0.5975 H       1  UNL1        0.2113
     52 H          -6.0321   -1.0399   -0.2050 H       1  UNL1        0.0307
     53 H          -6.0817   -1.4510    1.5505 H       1  UNL1        0.0307
     54 H          -6.9400   -2.4287    0.3664 H       1  UNL1        0.0307
     55 H           0.1397   -2.1125   -2.2319 H       1  UNL1        0.2924
     56 H           4.2758    0.0490   -1.8768 H       1  UNL1        0.0639
     57 H           4.4194   -0.3709    2.4251 H       1  UNL1        0.0639
     58 H           6.6981    0.0969   -1.9594 H       1  UNL1        0.0626
     59 H           6.8516   -0.3407    2.3464 H       1  UNL1        0.0626
     60 H           9.9614   -0.2050    1.3044 H       1  UNL1        0.2954
@<TRIPOS>BOND
     1     1    12    1
     2     1    21    1
     3     2    16    1
     4     2    51    1
     5     3    26    1
     6     3    55    1
     7     4    25    2
     8     5    35    1
     9     5    60    1
    10     6    35    2
    11     7    13    1
    12     7    18    1
    13     7    24    1
    14     8     9    2
    15     8    27    1
    16     9    29    1
    17    10    11    1
    18    10    12    1
    19    10    14    1
    20    10    15    1
    21    11    13    1
    22    11    20    1
    23    11    36    1
    24    12    16    1
    25    12    37    1
    26    13    17    1
    27    13    38    1
    28    14    18    1
    29    14    39    1
    30    14    40    1
    31    15    19   ar
    32    15    21   ar
    33    16    22    1
    34    16    25    1
    35    17    19    1
    36    17    41    1
    37    17    42    1
    38    18    43    1
    39    18    44    1
    40    19    23   ar
    41    20    22    2
    42    20    45    1
    43    21    26   ar
    44    22    46    1
    45    23    27   ar
    46    23    47    1
    47    24    48    1
    48    24    49    1
    49    24    50    1
    50    25    28    1
    51    26    27   ar
    52    28    52    1
    53    28    53    1
    54    28    54    1
    55    29    30   ar
    56    29    31   ar
    57    30    32   ar
    58    30    56    1
    59    31    33   ar
    60    31    57    1
    61    32    34   ar
    62    32    58    1
    63    33    34   ar
    64    33    59    1
    65    34    35    1
@<TRIPOS>MOLECULE
6912286
 40 44 0 0 0
SMALL
GASTEIGER

@<TRIPOS>ATOM
      1 O          -1.9930   -0.4740    1.2005 O.3     1  UNL1       -0.4811
      2 O          -2.7826   -2.5168   -0.2218 O.3     1  UNL1       -0.3841
      3 O          -3.6220    1.8421    0.5579 O.3     1  UNL1       -0.5033
      4 N           3.1777   -0.0101    0.4474 N.3     1  UNL1       -0.3015
      5 C           0.3699   -0.7149    0.6616 C.3     1  UNL1        0.0480
      6 C           1.2913   -1.3046   -0.4170 C.3     1  UNL1        0.0064
      7 C           2.3441   -0.2023   -0.7640 C.3     1  UNL1        0.0213
      8 C          -0.9377   -1.4750    0.9848 C.3     1  UNL1        0.1399
      9 C           1.1988   -0.3907    1.9201 C.3     1  UNL1       -0.0263
     10 C          -0.2516    0.5302    0.1205 C.ar    1  UNL1        0.0116
     11 C           1.6887    1.1052   -1.3279 C.3     1  UNL1       -0.0110
     12 C           2.4315    0.4754    1.6126 C.3     1  UNL1       -0.0001
     13 C           0.3384    1.4306   -0.7480 C.ar    1  UNL1       -0.0383
     14 C          -1.3631   -2.5067   -0.0924 C.3     1  UNL1        0.1110
     15 C           0.5066   -1.8183   -1.5971 C.2     1  UNL1       -0.0799
     16 C          -1.5672    0.6306    0.5136 C.ar    1  UNL1        0.1663
     17 C          -0.7155   -2.3492   -1.4425 C.2     1  UNL1       -0.0559
     18 C           4.3733    0.7916    0.2084 C.3     1  UNL1       -0.0124
     19 C          -0.4184    2.5415   -1.1246 C.ar    1  UNL1       -0.0546
     20 C          -2.3310    1.7217    0.1620 C.ar    1  UNL1        0.1588
     21 C          -1.7382    2.6936   -0.6541 C.ar    1  UNL1       -0.0162
     22 H           1.8278   -2.1759   -0.0118 H       1  UNL1        0.0368
     23 H           3.0029   -0.6035   -1.5465 H       1  UNL1        0.0472
     24 H          -0.8451   -2.0128    1.9373 H       1  UNL1        0.0772
     25 H           1.5366   -1.3335    2.3712 H       1  UNL1        0.0287
     26 H           0.5899    0.1174    2.6790 H       1  UNL1        0.0287
     27 H           1.5474    0.9596   -2.4075 H       1  UNL1        0.0329
     28 H           2.3530    1.9680   -1.2194 H       1  UNL1        0.0329
     29 H           2.1271    1.5205    1.4760 H       1  UNL1        0.0427
     30 H           3.0801    0.4584    2.4975 H       1  UNL1        0.0427
     31 H          -1.0772   -3.5067    0.2593 H       1  UNL1        0.0675
     32 H           0.9601   -1.7947   -2.5831 H       1  UNL1        0.0573
     33 H          -1.2300   -2.7505   -2.3109 H       1  UNL1        0.0596
     34 H           4.1500    1.8479    0.0287 H       1  UNL1        0.0391
     35 H           4.9380    0.4055   -0.6472 H       1  UNL1        0.0391
     36 H           5.0444    0.7352    1.0730 H       1  UNL1        0.0391
     37 H          -0.0062    3.2824   -1.8043 H       1  UNL1        0.0622
     38 H          -2.3121    3.5638   -0.9644 H       1  UNL1        0.0655
     39 H          -3.1557   -2.6445    0.6671 H       1  UNL1        0.2104
     40 H          -3.8483    1.0686    1.1031 H       1  UNL1        0.2923
@<TRIPOS>BOND
     1     1     8    1
     2     1    16    1
     3     2    14    1
     4     2    39    1
     5     3    20    1
     6     3    40    1
     7     4     7    1
     8     4    12    1
     9     4    18    1
    10     5     6    1
    11     5     8    1
    12     5     9    1
    13     5    10    1
    14     6     7    1
    15     6    15    1
    16     6    22    1
    17     7    11    1
    18     7    23    1
    19     8    14    1
    20     8    24    1
    21     9    12    1
    22     9    25    1
    23     9    26    1
    24    10    13   ar
    25    10    16   ar
    26    11    13    1
    27    11    27    1
    28    11    28    1
    29    12    29    1
    30    12    30    1
    31    13    19   ar
    32    14    17    1
    33    14    31    1
    34    15    17    2
    35    15    32    1
    36    16    20   ar
    37    17    33    1
    38    18    34    1
    39    18    35    1
    40    18    36    1
    41    19    21   ar
    42    19    37    1
    43    20    21   ar
    44    21    38    1
@<TRIPOS>MOLECULE
5311356
 59 64 0 0 0
SMALL
GASTEIGER

@<TRIPOS>ATOM
      1 O          -0.6973    1.5741    0.9388 O.3     1  UNL1       -0.4811
      2 O          -1.5198    3.7592   -0.2305 O.3     1  UNL1       -0.3841
      3 O           1.7944    0.7055   -0.2726 O.3     1  UNL1       -0.4870
      4 O           8.0908   -0.4599   -0.0932 O.3     1  UNL1       -0.3772
      5 N          -4.6987   -1.8155    0.8052 N.3     1  UNL1       -0.3015
      6 N           5.3000   -0.2270    0.4149 N.3     1  UNL1       -0.2948
      7 C          -2.8235    0.3998    0.7595 C.3     1  UNL1        0.0480
      8 C          -4.1093    0.3863   -0.0813 C.3     1  UNL1        0.0064
      9 C          -4.3868   -1.1052   -0.4586 C.3     1  UNL1        0.0213
     10 C          -2.1525    1.7677    1.0257 C.3     1  UNL1        0.1399
     11 C          -3.0468   -0.4165    2.0478 C.3     1  UNL1       -0.0263
     12 C          -1.7254   -0.2072   -0.0499 C.ar    1  UNL1        0.0116
     13 C          -3.2306   -1.7411   -1.3047 C.3     1  UNL1       -0.0110
     14 C          -3.5947   -1.8262    1.7702 C.3     1  UNL1       -0.0001
     15 C          -1.8541   -1.2355   -0.9661 C.ar    1  UNL1       -0.0383
     16 C          -2.6183    2.9057    0.0804 C.3     1  UNL1        0.1110
     17 C          -4.0136    1.3250   -1.2569 C.2     1  UNL1       -0.0799
     18 C          -0.5423    0.4689    0.1463 C.ar    1  UNL1        0.1666
     19 C          -3.3133    2.4664   -1.1810 C.2     1  UNL1       -0.0559
     20 C          -0.6921   -1.6630   -1.6107 C.ar    1  UNL1       -0.0546
     21 C          -5.2401   -3.1550    0.6002 C.3     1  UNL1       -0.0124
     22 C           0.6190    0.0602   -0.4716 C.ar    1  UNL1        0.1623
     23 C           0.5395   -1.0301   -1.3475 C.ar    1  UNL1       -0.0160
     24 C           2.9930   -0.0624   -0.4019 C.3     1  UNL1        0.1024
     25 C           4.0581    0.5386    0.5014 C.3     1  UNL1        0.0333
     26 C           5.8375   -0.1965   -0.9524 C.3     1  UNL1        0.0225
     27 C           6.2989    0.2906    1.3603 C.3     1  UNL1        0.0225
     28 C           7.1384   -0.9917   -1.0149 C.3     1  UNL1        0.0604
     29 C           7.5896   -0.5151    1.2430 C.3     1  UNL1        0.0604
     30 H          -4.9533    0.7497    0.5245 H       1  UNL1        0.0368
     31 H          -5.2968   -1.1307   -1.0741 H       1  UNL1        0.0472
     32 H          -2.3431    2.0964    2.0556 H       1  UNL1        0.0772
     33 H          -3.7644    0.1195    2.6837 H       1  UNL1        0.0287
     34 H          -2.1203   -0.5053    2.6296 H       1  UNL1        0.0287
     35 H          -3.4168   -1.4842   -2.3564 H       1  UNL1        0.0329
     36 H          -3.2448   -2.8340   -1.2491 H       1  UNL1        0.0329
     37 H          -2.7825   -2.4805    1.4301 H       1  UNL1        0.0427
     38 H          -3.9440   -2.2419    2.7238 H       1  UNL1        0.0427
     39 H          -3.3469    3.5235    0.6213 H       1  UNL1        0.0675
     40 H          -4.5580    1.0893   -2.1659 H       1  UNL1        0.0573
     41 H          -3.3064    3.1388   -2.0341 H       1  UNL1        0.0596
     42 H          -0.7339   -2.4644   -2.3435 H       1  UNL1        0.0622
     43 H          -4.4947   -3.8641    0.2267 H       1  UNL1        0.0391
     44 H          -6.0811   -3.1332   -0.1015 H       1  UNL1        0.0391
     45 H          -5.6340   -3.5510    1.5431 H       1  UNL1        0.0391
     46 H           1.4055   -1.3860   -1.8996 H       1  UNL1        0.0655
     47 H          -1.1188    4.0366    0.6108 H       1  UNL1        0.2104
     48 H           2.8342   -1.1074   -0.1039 H       1  UNL1        0.0709
     49 H           3.2704   -0.0170   -1.4584 H       1  UNL1        0.0709
     50 H           4.2105    1.5957    0.2456 H       1  UNL1        0.0460
     51 H           3.6797    0.5289    1.5320 H       1  UNL1        0.0460
     52 H           6.0231    0.8378   -1.2696 H       1  UNL1        0.0449
     53 H           5.1637   -0.6650   -1.6743 H       1  UNL1        0.0449
     54 H           5.9255    0.2153    2.3879 H       1  UNL1        0.0449
     55 H           6.5087    1.3476    1.1507 H       1  UNL1        0.0449
     56 H           6.9748   -2.0548   -0.7995 H       1  UNL1        0.0572
     57 H           7.5719   -0.9202   -2.0177 H       1  UNL1        0.0572
     58 H           8.3540   -0.0924    1.9027 H       1  UNL1        0.0572
     59 H           7.4413   -1.5618    1.5353 H       1  UNL1        0.0572
@<TRIPOS>BOND
     1     1    10    1
     2     1    18    1
     3     2    16    1
     4     2    47    1
     5     3    22    1
     6     3    24    1
     7     4    28    1
     8     4    29    1
     9     5     9    1
    10     5    14    1
    11     5    21    1
    12     6    25    1
    13     6    26    1
    14     6    27    1
    15     7     8    1
    16     7    10    1
    17     7    11    1
    18     7    12    1
    19     8     9    1
    20     8    17    1
    21     8    30    1
    22     9    13    1
    23     9    31    1
    24    10    16    1
    25    10    32    1
    26    11    14    1
    27    11    33    1
    28    11    34    1
    29    12    15   ar
    30    12    18   ar
    31    13    15    1
    32    13    35    1
    33    13    36    1
    34    14    37    1
    35    14    38    1
    36    15    20   ar
    37    16    19    1
    38    16    39    1
    39    17    19    2
    40    17    40    1
    41    18    22   ar
    42    19    41    1
    43    20    23   ar
    44    20    42    1
    45    21    43    1
    46    21    44    1
    47    21    45    1
    48    22    23   ar
    49    23    46    1
    50    24    25    1
    51    24    48    1
    52    24    49    1
    53    25    50    1
    54    25    51    1
    55    26    28    1
    56    26    52    1
    57    26    53    1
    58    27    29    1
    59    27    54    1
    60    27    55    1
    61    28    56    1
    62    28    57    1
    63    29    58    1
    64    29    59    1
@<TRIPOS>MOLECULE
5284371
 43 47 0 0 0
SMALL
GASTEIGER

@<TRIPOS>ATOM
      1 O          -1.5926   -1.0371    1.1890 O.3     1  UNL1       -0.4811
      2 O          -1.8298   -3.2224   -0.2208 O.3     1  UNL1       -0.3841
      3 O          -3.7490    0.7880    0.5181 O.3     1  UNL1       -0.4914
      4 N           3.2987    0.7132    0.4612 N.3     1  UNL1       -0.3015
      5 C           0.7585   -0.6767    0.6654 C.3     1  UNL1        0.0480
      6 C           1.8071   -1.0215   -0.4031 C.3     1  UNL1        0.0064
      7 C           2.5499    0.3087   -0.7532 C.3     1  UNL1        0.0213
      8 C          -0.3170   -1.7404    0.9876 C.3     1  UNL1        0.1399
      9 C           1.4691   -0.1453    1.9259 C.3     1  UNL1       -0.0263
     10 C          -0.1533    0.3674    0.1106 C.ar    1  UNL1        0.0116
     11 C           1.5897    1.4045   -1.3316 C.3     1  UNL1       -0.0110
     12 C           2.4454    1.0021    1.6181 C.3     1  UNL1       -0.0001
     13 C           0.1967    1.3820   -0.7621 C.ar    1  UNL1       -0.0383
     14 C          -0.4599   -2.8532   -0.0835 C.3     1  UNL1        0.1110
     15 C           1.1865   -1.7246   -1.5833 C.2     1  UNL1       -0.0799
     16 C          -1.4545    0.1347    0.4954 C.ar    1  UNL1        0.1666
     17 C           0.1370   -2.5460   -1.4311 C.2     1  UNL1       -0.0559
     18 C           4.2548    1.7894    0.2223 C.3     1  UNL1       -0.0124
     19 C          -0.8133    2.2630   -1.1520 C.ar    1  UNL1       -0.0546
     20 C          -2.4665    0.9951    0.1305 C.ar    1  UNL1        0.1618
     21 C          -2.1323    2.0799   -0.6902 C.ar    1  UNL1       -0.0160
     22 C          -4.7250    1.7390    0.0868 C.3     1  UNL1        0.0790
     23 H           2.5432   -1.7265    0.0124 H       1  UNL1        0.0368
     24 H           3.2945    0.0818   -1.5287 H       1  UNL1        0.0472
     25 H          -0.0988   -2.2310    1.9450 H       1  UNL1        0.0772
     26 H           2.0307   -0.9692    2.3866 H       1  UNL1        0.0287
     27 H           0.7460    0.1975    2.6771 H       1  UNL1        0.0287
     28 H           1.4978    1.2209   -2.4108 H       1  UNL1        0.0329
     29 H           2.0137    2.4078   -1.2265 H       1  UNL1        0.0329
     30 H           1.8878    1.9354    1.4711 H       1  UNL1        0.0427
     31 H           3.0705    1.1554    2.5067 H       1  UNL1        0.0427
     32 H           0.0666   -3.7461    0.2781 H       1  UNL1        0.0675
     33 H           1.6268   -1.5936   -2.5669 H       1  UNL1        0.0573
     34 H          -0.2529   -3.0700   -2.2991 H       1  UNL1        0.0596
     35 H           3.7733    2.7539    0.0327 H       1  UNL1        0.0391
     36 H           4.9052    1.5529   -0.6269 H       1  UNL1        0.0391
     37 H           4.9119    1.9100    1.0911 H       1  UNL1        0.0391
     38 H          -0.5953    3.0800   -1.8348 H       1  UNL1        0.0622
     39 H          -2.8599    2.8061   -1.0394 H       1  UNL1        0.0655
     40 H          -2.1650   -3.4351    0.6669 H       1  UNL1        0.2104
     41 H          -4.5125    2.7381    0.4819 H       1  UNL1        0.0660
     42 H          -5.6882    1.4255    0.5022 H       1  UNL1        0.0660
     43 H          -4.8280    1.7389   -1.0034 H       1  UNL1        0.0660
@<TRIPOS>BOND
     1     1     8    1
     2     1    16    1
     3     2    14    1
     4     2    40    1
     5     3    20    1
     6     3    22    1
     7     4     7    1
     8     4    12    1
     9     4    18    1
    10     5     6    1
    11     5     8    1
    12     5     9    1
    13     5    10    1
    14     6     7    1
    15     6    15    1
    16     6    23    1
    17     7    11    1
    18     7    24    1
    19     8    14    1
    20     8    25    1
    21     9    12    1
    22     9    26    1
    23     9    27    1
    24    10    13   ar
    25    10    16   ar
    26    11    13    1
    27    11    28    1
    28    11    29    1
    29    12    30    1
    30    12    31    1
    31    13    19   ar
    32    14    17    1
    33    14    32    1
    34    15    17    2
    35    15    33    1
    36    16    20   ar
    37    17    34    1
    38    18    35    1
    39    18    36    1
    40    18    37    1
    41    19    21   ar
    42    19    38    1
    43    20    21   ar
    44    21    39    1
    45    22    41    1
    46    22    42    1
    47    22    43    1
@<TRIPOS>MOLECULE
5362460
 62 68 0 0 0
SMALL
GASTEIGER

@<TRIPOS>ATOM
      1 O           0.6089    0.3112    1.3367 O.3     1  UNL1       -0.4799
      2 O          -0.4148   -1.9656    0.5700 O.3     1  UNL1       -0.4499
      3 O          -0.8142    2.4941    0.0559 O.3     1  UNL1       -0.4186
      4 O          -0.5185   -4.1356   -0.1910 O.2     1  UNL1       -0.2449
      5 O          -1.6430    0.9036   -1.4330 O.2     1  UNL1       -0.2445
      6 N           5.7736    0.0217    0.4646 N.3     1  UNL1       -0.3015
      7 N          -4.5963   -3.3525   -1.0218 N.ar    1  UNL1       -0.2624
      8 N          -4.4899    3.6640    1.2122 N.ar    1  UNL1       -0.2624
      9 C           2.9201   -0.3085    0.8831 C.3     1  UNL1        0.0491
     10 C           3.7469   -1.2725    0.0185 C.3     1  UNL1        0.0064
     11 C           4.8874   -0.4273   -0.6364 C.3     1  UNL1        0.0213
     12 C           1.5577   -0.8094    1.4169 C.3     1  UNL1        0.1509
     13 C           3.8157    0.2803    1.9909 C.3     1  UNL1       -0.0263
     14 C           2.4018    0.7834    0.0064 C.ar    1  UNL1        0.0116
     15 C           4.3404    0.7208   -1.5528 C.3     1  UNL1       -0.0110
     16 C           5.1141    0.8940    1.4416 C.3     1  UNL1       -0.0001
     17 C           3.0461    1.3321   -1.0877 C.ar    1  UNL1       -0.0383
     18 C           1.0028   -2.0600    0.6863 C.3     1  UNL1        0.1590
     19 C           2.8800   -2.0236   -0.9594 C.2     1  UNL1       -0.0788
     20 C           1.1148    1.1230    0.3578 C.ar    1  UNL1        0.1674
     21 C           1.6189   -2.3631   -0.6536 C.2     1  UNL1       -0.0439
     22 C           7.0312    0.5976   -0.0003 C.3     1  UNL1       -0.0124
     23 C           2.3857    2.3569   -1.7675 C.ar    1  UNL1       -0.0545
     24 C           0.4464    2.1370   -0.2923 C.ar    1  UNL1        0.1737
     25 C           1.1018    2.7687   -1.3570 C.ar    1  UNL1       -0.0153
     26 C          -1.0495   -3.0802    0.1180 C.2     1  UNL1        0.3413
     27 C          -1.8223    1.7781   -0.5988 C.2     1  UNL1        0.3460
     28 C          -2.5147   -2.8527    0.0411 C.ar    1  UNL1        0.0770
     29 C          -3.1706    2.2246   -0.1662 C.ar    1  UNL1        0.0774
     30 C          -3.1187   -1.9789    0.9130 C.ar    1  UNL1       -0.0449
     31 C          -3.2598   -3.5139   -0.8983 C.ar    1  UNL1        0.0415
     32 C          -4.4923   -1.7862    0.8170 C.ar    1  UNL1       -0.0428
     33 C          -4.2913    1.6458   -0.7116 C.ar    1  UNL1       -0.0449
     34 C          -3.2934    3.2116    0.7748 C.ar    1  UNL1        0.0415
     35 C          -5.1793   -2.4905   -0.1587 C.ar    1  UNL1        0.0276
     36 C          -5.5404    2.0848   -0.2869 C.ar    1  UNL1       -0.0428
     37 C          -5.5851    3.0872    0.6686 C.ar    1  UNL1        0.0276
     38 H           4.2115   -2.0391    0.6572 H       1  UNL1        0.0368
     39 H           5.4801   -1.1004   -1.2712 H       1  UNL1        0.0472
     40 H           1.6290   -1.0551    2.4845 H       1  UNL1        0.0783
     41 H           4.0773   -0.5215    2.6948 H       1  UNL1        0.0287
     42 H           3.2820    1.0434    2.5720 H       1  UNL1        0.0287
     43 H           4.1516    0.2853   -2.5435 H       1  UNL1        0.0329
     44 H           5.0863    1.5078   -1.7011 H       1  UNL1        0.0329
     45 H           4.9053    1.8803    1.0089 H       1  UNL1        0.0427
     46 H           5.7861    1.0681    2.2913 H       1  UNL1        0.0427
     47 H           1.2276   -2.9240    1.3288 H       1  UNL1        0.0817
     48 H           3.2975   -2.3142   -1.9185 H       1  UNL1        0.0574
     49 H           1.0697   -2.9073   -1.4146 H       1  UNL1        0.0607
     50 H           6.9028    1.5742   -0.4776 H       1  UNL1        0.0391
     51 H           7.5293   -0.0727   -0.7092 H       1  UNL1        0.0391
     52 H           7.7213    0.7260    0.8414 H       1  UNL1        0.0391
     53 H           2.8439    2.8259   -2.6341 H       1  UNL1        0.0622
     54 H           0.6035    3.5655   -1.9044 H       1  UNL1        0.0656
     55 H          -2.5668   -1.4419    1.6783 H       1  UNL1        0.0627
     56 H          -2.8204   -4.2087   -1.6060 H       1  UNL1        0.0838
     57 H          -5.0093   -1.1074    1.4857 H       1  UNL1        0.0633
     58 H          -4.2297    0.8612   -1.4592 H       1  UNL1        0.0627
     59 H          -2.4504    3.7066    1.2435 H       1  UNL1        0.0838
     60 H          -6.2518   -2.3751   -0.2751 H       1  UNL1        0.0829
     61 H          -6.4501    1.6550   -0.6902 H       1  UNL1        0.0633
     62 H          -6.5348    3.4643    1.0336 H       1  UNL1        0.0829
@<TRIPOS>BOND
     1     1    12    1
     2     1    20    1
     3     2    18    1
     4     2    26    1
     5     3    24    1
     6     3    27    1
     7     4    26    2
     8     5    27    2
     9     6    11    1
    10     6    16    1
    11     6    22    1
    12     7    31   ar
    13     7    35   ar
    14     8    34   ar
    15     8    37   ar
    16     9    10    1
    17     9    12    1
    18     9    13    1
    19     9    14    1
    20    10    11    1
    21    10    19    1
    22    10    38    1
    23    11    15    1
    24    11    39    1
    25    12    18    1
    26    12    40    1
    27    13    16    1
    28    13    41    1
    29    13    42    1
    30    14    17   ar
    31    14    20   ar
    32    15    17    1
    33    15    43    1
    34    15    44    1
    35    16    45    1
    36    16    46    1
    37    17    23   ar
    38    18    21    1
    39    18    47    1
    40    19    21    2
    41    19    48    1
    42    20    24   ar
    43    21    49    1
    44    22    50    1
    45    22    51    1
    46    22    52    1
    47    23    25   ar
    48    23    53    1
    49    24    25   ar
    50    25    54    1
    51    26    28    1
    52    27    29    1
    53    28    30   ar
    54    28    31   ar
    55    29    33   ar
    56    29    34   ar
    57    30    32   ar
    58    30    55    1
    59    31    56    1
    60    32    35   ar
    61    32    57    1
    62    33    36   ar
    63    33    58    1
    64    34    59    1
    65    35    60    1
    66    36    37   ar
    67    36    61    1
    68    37    62    1
@<TRIPOS>MOLECULE
5462505
 43 47 0 0 0
SMALL
GASTEIGER

@<TRIPOS>ATOM
      1 O          -1.7889    0.3295    1.3251 O.3     1  UNL1       -0.4811
      2 O          -3.2173   -1.4706    0.0845 O.3     1  UNL1       -0.3721
      3 O          -2.6957    2.9805    0.5629 O.3     1  UNL1       -0.5033
      4 N           3.2430   -0.8110    0.3778 N.3     1  UNL1       -0.3015
      5 C           0.3672   -0.6352    0.7319 C.3     1  UNL1        0.0480
      6 C           1.0170   -1.5377   -0.3282 C.3     1  UNL1        0.0064
      7 C           2.3280   -0.8216   -0.7892 C.3     1  UNL1        0.0213
      8 C          -1.0874   -0.9512    1.1517 C.3     1  UNL1        0.1401
      9 C           1.3191   -0.4946    1.9361 C.3     1  UNL1       -0.0263
     10 C           0.1122    0.7022    0.1192 C.ar    1  UNL1        0.0116
     11 C           2.0577    0.5841   -1.4282 C.3     1  UNL1       -0.0110
     12 C           2.7343   -0.0546    1.5263 C.3     1  UNL1       -0.0001
     13 C          -1.8529   -1.8746    0.1682 C.3     1  UNL1        0.1140
     14 C           0.8950    1.3311   -0.8322 C.ar    1  UNL1       -0.0383
     15 C           0.0556   -1.8672   -1.4415 C.2     1  UNL1       -0.0799
     16 C          -1.0934    1.2130    0.5447 C.ar    1  UNL1        0.1663
     17 C          -1.2587   -2.0004   -1.2095 C.2     1  UNL1       -0.0557
     18 C           4.6074   -0.4170    0.0423 C.3     1  UNL1       -0.0124
     19 C           0.4798    2.5910   -1.2666 C.ar    1  UNL1       -0.0546
     20 C          -1.5197    2.4578    0.1368 C.ar    1  UNL1        0.1588
     21 C          -0.7105    3.1572   -0.7677 C.ar    1  UNL1       -0.0162
     22 C          -3.9918   -2.4108   -0.6444 C.3     1  UNL1        0.0374
     23 H           1.2937   -2.5022    0.1240 H       1  UNL1        0.0368
     24 H           2.7980   -1.4481   -1.5599 H       1  UNL1        0.0472
     25 H          -1.1078   -1.4306    2.1390 H       1  UNL1        0.0772
     26 H           1.3876   -1.4654    2.4454 H       1  UNL1        0.0287
     27 H           0.9270    0.2174    2.6737 H       1  UNL1        0.0287
     28 H           1.8238    0.4204   -2.4890 H       1  UNL1        0.0329
     29 H           2.9511    1.2156   -1.4052 H       1  UNL1        0.0329
     30 H           2.7441    1.0232    1.3218 H       1  UNL1        0.0427
     31 H           3.3943   -0.2086    2.3893 H       1  UNL1        0.0427
     32 H          -1.8242   -2.8831    0.6060 H       1  UNL1        0.0678
     33 H           0.4460   -2.0444   -2.4389 H       1  UNL1        0.0573
     34 H          -1.8691   -2.2947   -2.0560 H       1  UNL1        0.0596
     35 H           4.6957    0.6447   -0.2086 H       1  UNL1        0.0391
     36 H           4.9883   -1.0057   -0.7995 H       1  UNL1        0.0391
     37 H           5.2763   -0.6166    0.8873 H       1  UNL1        0.0391
     38 H           1.0558    3.1325   -2.0123 H       1  UNL1        0.0622
     39 H          -1.0185    4.1376   -1.1240 H       1  UNL1        0.0655
     40 H          -3.7138   -3.4475   -0.4274 H       1  UNL1        0.0524
     41 H          -3.9508   -2.2083   -1.7181 H       1  UNL1        0.0524
     42 H          -5.0355   -2.2790   -0.3416 H       1  UNL1        0.0524
     43 H          -3.1109    2.3444    1.1712 H       1  UNL1        0.2923
@<TRIPOS>BOND
     1     1     8    1
     2     1    16    1
     3     2    13    1
     4     2    22    1
     5     3    20    1
     6     3    43    1
     7     4     7    1
     8     4    12    1
     9     4    18    1
    10     5     6    1
    11     5     8    1
    12     5     9    1
    13     5    10    1
    14     6     7    1
    15     6    15    1
    16     6    23    1
    17     7    11    1
    18     7    24    1
    19     8    13    1
    20     8    25    1
    21     9    12    1
    22     9    26    1
    23     9    27    1
    24    10    14   ar
    25    10    16   ar
    26    11    14    1
    27    11    28    1
    28    11    29    1
    29    12    30    1
    30    12    31    1
    31    13    17    1
    32    13    32    1
    33    14    19   ar
    34    15    17    2
    35    15    33    1
    36    16    20   ar
    37    17    34    1
    38    18    35    1
    39    18    36    1
    40    18    37    1
    41    19    21   ar
    42    19    38    1
    43    20    21   ar
    44    21    39    1
    45    22    40    1
    46    22    41    1
    47    22    42    1
@<TRIPOS>MOLECULE
5462507
 45 49 0 0 0
SMALL
GASTEIGER

@<TRIPOS>ATOM
      1 O          -1.1221    0.9702    1.4191 O.3     1  UNL1       -0.4799
      2 O          -3.0521   -0.4395    0.3667 O.3     1  UNL1       -0.4536
      3 O          -1.3343    3.7243    0.5242 O.3     1  UNL1       -0.5033
      4 O          -4.1150   -2.1901   -0.7020 O.2     1  UNL1       -0.2511
      5 N           3.3556   -1.5334    0.3231 N.3     1  UNL1       -0.3015
      6 C           0.6581   -0.5700    0.7944 C.3     1  UNL1        0.0491
      7 C           0.9774   -1.6680   -0.2316 C.3     1  UNL1        0.0064
      8 C           2.4010   -1.3571   -0.7980 C.3     1  UNL1        0.0213
      9 C          -0.7994   -0.4595    1.2996 C.3     1  UNL1        0.1509
     10 C           1.6851   -0.6293    1.9423 C.3     1  UNL1       -0.0263
     11 C           0.7318    0.7530    0.1063 C.ar    1  UNL1        0.0116
     12 C           2.4765    0.0342   -1.5162 C.3     1  UNL1       -0.0110
     13 C           3.1385   -0.6093    1.4407 C.3     1  UNL1       -0.0001
     14 C           1.5940    1.0971   -0.9191 C.ar    1  UNL1       -0.0383
     15 C          -1.8423   -1.1918    0.4153 C.3     1  UNL1        0.1587
     16 C          -0.1035   -1.7831   -1.2760 C.2     1  UNL1       -0.0788
     17 C          -0.2655    1.5915    0.5510 C.ar    1  UNL1        0.1664
     18 C          -1.3890   -1.5446   -0.9764 C.2     1  UNL1       -0.0439
     19 C           4.7524   -1.5401   -0.0991 C.3     1  UNL1       -0.0124
     20 C           1.5039    2.3981   -1.4171 C.ar    1  UNL1       -0.0546
     21 C          -0.3687    2.8823    0.0811 C.ar    1  UNL1        0.1588
     22 C           0.5406    3.2895   -0.9036 C.ar    1  UNL1       -0.0162
     23 C          -4.1140   -1.0642   -0.2229 C.2     1  UNL1        0.3046
     24 C          -5.3091   -0.1601   -0.2018 C.3     1  UNL1        0.0333
     25 H           1.0142   -2.6467    0.2705 H       1  UNL1        0.0368
     26 H           2.6387   -2.1264   -1.5459 H       1  UNL1        0.0472
     27 H          -0.8864   -0.8639    2.3165 H       1  UNL1        0.0783
     28 H           1.5234   -1.5548    2.5114 H       1  UNL1        0.0287
     29 H           1.5431    0.1995    2.6480 H       1  UNL1        0.0287
     30 H           2.1429   -0.1150   -2.5521 H       1  UNL1        0.0329
     31 H           3.5057    0.4015   -1.5755 H       1  UNL1        0.0329
     32 H           3.4227    0.4138    1.1647 H       1  UNL1        0.0427
     33 H           3.7852   -0.8907    2.2812 H       1  UNL1        0.0427
     34 H          -2.0632   -2.1460    0.9161 H       1  UNL1        0.0817
     35 H           0.1663   -2.0892   -2.2821 H       1  UNL1        0.0574
     36 H          -2.1000   -1.6564   -1.7880 H       1  UNL1        0.0607
     37 H           5.1049   -0.5562   -0.4238 H       1  UNL1        0.0391
     38 H           4.9101   -2.2526   -0.9162 H       1  UNL1        0.0391
     39 H           5.3943   -1.8687    0.7261 H       1  UNL1        0.0391
     40 H           2.1565    2.7246   -2.2224 H       1  UNL1        0.0622
     41 H           0.4839    4.2968   -1.3099 H       1  UNL1        0.0655
     42 H          -1.8663    3.2560    1.1910 H       1  UNL1        0.2923
     43 H          -5.0901    0.7558   -0.7564 H       1  UNL1        0.0342
     44 H          -5.5807    0.0705    0.8314 H       1  UNL1        0.0342
     45 H          -6.1537   -0.6638   -0.6806 H       1  UNL1        0.0342
@<TRIPOS>BOND
     1     1     9    1
     2     1    17    1
     3     2    15    1
     4     2    23    1
     5     3    21    1
     6     3    42    1
     7     4    23    2
     8     5     8    1
     9     5    13    1
    10     5    19    1
    11     6     7    1
    12     6     9    1
    13     6    10    1
    14     6    11    1
    15     7     8    1
    16     7    16    1
    17     7    25    1
    18     8    12    1
    19     8    26    1
    20     9    15    1
    21     9    27    1
    22    10    13    1
    23    10    28    1
    24    10    29    1
    25    11    14   ar
    26    11    17   ar
    27    12    14    1
    28    12    30    1
    29    12    31    1
    30    13    32    1
    31    13    33    1
    32    14    20   ar
    33    15    18    1
    34    15    34    1
    35    16    18    2
    36    16    35    1
    37    17    21   ar
    38    18    36    1
    39    19    37    1
    40    19    38    1
    41    19    39    1
    42    20    22   ar
    43    20    40    1
    44    21    22   ar
    45    22    41    1
    46    23    24    1
    47    24    43    1
    48    24    44    1
    49    24    45    1
@<TRIPOS>MOLECULE
5462504
 45 49 0 0 0
SMALL
GASTEIGER

@<TRIPOS>ATOM
      1 O          -1.2198   -0.8139    1.3092 O.3     1  UNL1       -0.4810
      2 O          -1.7494   -2.9510   -0.0951 O.3     1  UNL1       -0.3841
      3 O          -3.2007    1.2326    0.7443 O.3     1  UNL1       -0.4223
      4 O          -3.7507   -0.0277   -1.1500 O.2     1  UNL1       -0.2507
      5 N           3.7901    0.4197    0.3618 N.3     1  UNL1       -0.3015
      6 C           1.1298   -0.6978    0.6787 C.3     1  UNL1        0.0480
      7 C           2.0865   -1.1421   -0.4382 C.3     1  UNL1        0.0064
      8 C           2.9483    0.1056   -0.8181 C.3     1  UNL1        0.0213
      9 C          -0.0357   -1.6454    1.0468 C.3     1  UNL1        0.1399
     10 C           1.9491   -0.2539    1.9067 C.3     1  UNL1       -0.0263
     11 C           0.3085    0.4405    0.1699 C.ar    1  UNL1        0.0116
     12 C           2.0832    1.3006   -1.3480 C.3     1  UNL1       -0.0110
     13 C           3.0255    0.7872    1.5578 C.3     1  UNL1       -0.0001
     14 C           0.7230    1.4198   -0.7148 C.ar    1  UNL1       -0.0383
     15 C          -0.3434   -2.7285   -0.0200 C.3     1  UNL1        0.1110
     16 C           1.3423   -1.7668   -1.5906 C.2     1  UNL1       -0.0799
     17 C          -0.9911    0.3425    0.6136 C.ar    1  UNL1        0.1673
     18 C           0.2204   -2.4748   -1.3928 C.2     1  UNL1       -0.0559
     19 C           4.8421    1.3916    0.0824 C.3     1  UNL1       -0.0124
     20 C          -0.2055    2.4049   -1.0549 C.ar    1  UNL1       -0.0545
     21 C          -1.9226    1.3072    0.2986 C.ar    1  UNL1        0.1733
     22 C          -1.5140    2.3574   -0.5333 C.ar    1  UNL1       -0.0153
     23 C          -4.0660    0.5085   -0.0959 C.2     1  UNL1        0.3093
     24 C          -5.4499    0.4839    0.4820 C.3     1  UNL1        0.0336
     25 H           2.7627   -1.9235   -0.0593 H       1  UNL1        0.0368
     26 H           3.6289   -0.1919   -1.6278 H       1  UNL1        0.0472
     27 H           0.1731   -2.1639    1.9916 H       1  UNL1        0.0772
     28 H           2.4414   -1.1358    2.3384 H       1  UNL1        0.0287
     29 H           1.3010    0.1568    2.6916 H       1  UNL1        0.0287
     30 H           1.9235    1.1362   -2.4224 H       1  UNL1        0.0329
     31 H           2.6147    2.2531   -1.2595 H       1  UNL1        0.0329
     32 H           2.5630    1.7750    1.4397 H       1  UNL1        0.0427
     33 H           3.7031    0.8669    2.4171 H       1  UNL1        0.0427
     34 H           0.1022   -3.6746    0.3142 H       1  UNL1        0.0675
     35 H           1.7486   -1.6748   -2.5931 H       1  UNL1        0.0573
     36 H          -0.2618   -2.9479   -2.2434 H       1  UNL1        0.0596
     37 H           4.4564    2.4027   -0.0817 H       1  UNL1        0.0391
     38 H           5.4246    1.0950   -0.7966 H       1  UNL1        0.0391
     39 H           5.5471    1.4357    0.9203 H       1  UNL1        0.0391
     40 H           0.0644    3.1998   -1.7450 H       1  UNL1        0.0622
     41 H          -2.2227    3.1325   -0.8159 H       1  UNL1        0.0656
     42 H          -2.0650   -3.1307    0.8071 H       1  UNL1        0.2104
     43 H          -5.4318   -0.0013    1.4610 H       1  UNL1        0.0342
     44 H          -6.1091   -0.0863   -0.1787 H       1  UNL1        0.0342
     45 H          -5.8333    1.5038    0.5641 H       1  UNL1        0.0342
@<TRIPOS>BOND
     1     1     9    1
     2     1    17    1
     3     2    15    1
     4     2    42    1
     5     3    21    1
     6     3    23    1
     7     4    23    2
     8     5     8    1
     9     5    13    1
    10     5    19    1
    11     6     7    1
    12     6     9    1
    13     6    10    1
    14     6    11    1
    15     7     8    1
    16     7    16    1
    17     7    25    1
    18     8    12    1
    19     8    26    1
    20     9    15    1
    21     9    27    1
    22    10    13    1
    23    10    28    1
    24    10    29    1
    25    11    14   ar
    26    11    17   ar
    27    12    14    1
    28    12    30    1
    29    12    31    1
    30    13    32    1
    31    13    33    1
    32    14    20   ar
    33    15    18    1
    34    15    34    1
    35    16    18    2
    36    16    35    1
    37    17    21   ar
    38    18    36    1
    39    19    37    1
    40    19    38    1
    41    19    39    1
    42    20    22   ar
    43    20    40    1
    44    21    22   ar
    45    22    41    1
    46    23    24    1
    47    24    43    1
    48    24    44    1
    49    24    45    1
@<TRIPOS>MOLECULE
46780039
 45 49 0 0 0
SMALL
GASTEIGER

@<TRIPOS>ATOM
      1 O           1.4238   -0.6463    1.0345 O.3     1  UNL1       -0.4799
      2 O           2.9970    0.6037   -0.6334 O.3     1  UNL1       -0.4536
      3 O           1.6332   -3.5104    0.6041 O.3     1  UNL1       -0.5033
      4 O           4.0406    1.9871    0.8944 O.2     1  UNL1       -0.2511
      5 N          -3.3422    1.4812    0.5073 N.3     1  UNL1       -0.3015
      6 C          -0.5467    0.7004    0.5493 C.3     1  UNL1        0.0491
      7 C          -1.1432    1.5822   -0.5583 C.3     1  UNL1        0.0064
      8 C          -2.6284    1.1310   -0.7445 C.3     1  UNL1        0.0213
      9 C           0.9876    0.7273    0.7422 C.3     1  UNL1        0.1509
     10 C          -1.3178    0.9383    1.8627 C.3     1  UNL1       -0.0263
     11 C          -0.6704   -0.7278    0.1319 C.ar    1  UNL1        0.0116
     12 C          -2.7556   -0.3698   -1.1786 C.3     1  UNL1       -0.0110
     13 C          -2.8386    0.7839    1.6948 C.3     1  UNL1       -0.0001
     14 C          -1.6996   -1.2791   -0.6101 C.ar    1  UNL1       -0.0383
     15 C           1.7748    1.3161   -0.4576 C.3     1  UNL1        0.1587
     16 C          -0.3100    1.5361   -1.8137 C.2     1  UNL1       -0.0788
     17 C           0.4512   -1.4410    0.4906 C.ar    1  UNL1        0.1664
     18 C           1.0228    1.3945   -1.7596 C.2     1  UNL1       -0.0439
     19 C          -4.7931    1.3694    0.3992 C.3     1  UNL1       -0.0124
     20 C          -1.6259   -2.6459   -0.8837 C.ar    1  UNL1       -0.0546
     21 C           0.5427   -2.7922    0.2394 C.ar    1  UNL1        0.1588
     22 C          -0.5198   -3.3995   -0.4423 C.ar    1  UNL1       -0.0162
     23 C           4.0541    1.0492    0.1088 C.2     1  UNL1        0.3046
     24 C           5.2635    0.2115   -0.1775 C.3     1  UNL1        0.0333
     25 H          -1.1421    2.6347   -0.2365 H       1  UNL1        0.0368
     26 H          -3.0659    1.7430   -1.5455 H       1  UNL1        0.0472
     27 H           1.2524    1.3135    1.6318 H       1  UNL1        0.0783
     28 H          -0.9783    0.2573    2.6538 H       1  UNL1        0.0287
     29 H          -1.1057    1.9567    2.2154 H       1  UNL1        0.0287
     30 H          -3.7478   -0.7720   -0.9520 H       1  UNL1        0.0329
     31 H          -2.6526   -0.4029   -2.2718 H       1  UNL1        0.0329
     32 H          -3.1035   -0.2803    1.6669 H       1  UNL1        0.0427
     33 H          -3.3165    1.1952    2.5929 H       1  UNL1        0.0427
     34 H           1.9931    2.3696   -0.2282 H       1  UNL1        0.0817
     35 H          -0.7972    1.6626   -2.7755 H       1  UNL1        0.0574
     36 H           1.5933    1.4125   -2.6838 H       1  UNL1        0.0607
     37 H          -5.1376    0.3327    0.3324 H       1  UNL1        0.0391
     38 H          -5.2727    1.8244    1.2733 H       1  UNL1        0.0391
     39 H          -5.1629    1.9153   -0.4756 H       1  UNL1        0.0391
     40 H          -2.4064   -3.1334   -1.4617 H       1  UNL1        0.0622
     41 H          -0.4858   -4.4617   -0.6740 H       1  UNL1        0.0655
     42 H           1.5063   -4.4351    0.3304 H       1  UNL1        0.2923
     43 H           5.5300    0.2946   -1.2341 H       1  UNL1        0.0342
     44 H           6.1039    0.5701    0.4237 H       1  UNL1        0.0342
     45 H           5.0639   -0.8295    0.0890 H       1  UNL1        0.0342
@<TRIPOS>BOND
     1     1     9    1
     2     1    17    1
     3     2    15    1
     4     2    23    1
     5     3    21    1
     6     3    42    1
     7     4    23    2
     8     5     8    1
     9     5    13    1
    10     5    19    1
    11     6     7    1
    12     6     9    1
    13     6    10    1
    14     6    11    1
    15     7     8    1
    16     7    16    1
    17     7    25    1
    18     8    12    1
    19     8    26    1
    20     9    15    1
    21     9    27    1
    22    10    13    1
    23    10    28    1
    24    10    29    1
    25    11    14   ar
    26    11    17   ar
    27    12    14    1
    28    12    30    1
    29    12    31    1
    30    13    32    1
    31    13    33    1
    32    14    20   ar
    33    15    18    1
    34    15    34    1
    35    16    18    2
    36    16    35    1
    37    17    21   ar
    38    18    36    1
    39    19    37    1
    40    19    38    1
    41    19    39    1
    42    20    22   ar
    43    20    40    1
    44    21    22   ar
    45    22    41    1
    46    23    24    1
    47    24    43    1
    48    24    44    1
    49    24    45    1
@<TRIPOS>MOLECULE
521308
 59 64 0 0 0
SMALL
GASTEIGER

@<TRIPOS>ATOM
      1 O          -0.3694   -0.5235    0.6697 O.3     1  UNL1       -0.4811
      2 O           0.1811   -3.7438   -0.0991 O.3     1  UNL1       -0.3841
      3 O          -1.9182    1.6666   -0.4854 O.3     1  UNL1       -0.4870
      4 O          -6.2581   -1.5106    0.1634 O.3     1  UNL1       -0.3772
      5 N           4.7526    0.2714    1.0312 N.3     1  UNL1       -0.3015
      6 N          -4.5250    0.7471    0.1454 N.3     1  UNL1       -0.2948
      7 C           2.0406   -0.6821    0.6150 C.3     1  UNL1        0.0480
      8 C           3.2511   -1.2904   -0.1020 C.3     1  UNL1        0.0064
      9 C           4.2758   -0.1295   -0.3154 C.3     1  UNL1        0.0213
     10 C           0.7375   -1.5048    0.6526 C.3     1  UNL1        0.1399
     11 C           2.4942   -0.1925    2.0071 C.3     1  UNL1       -0.0263
     12 C           1.5081    0.4715   -0.1627 C.ar    1  UNL1        0.0116
     13 C           3.6958    1.0345   -1.1928 C.3     1  UNL1       -0.0110
     14 C           3.6989    0.7627    1.9258 C.3     1  UNL1       -0.0001
     15 C           2.2391    1.3295   -0.9602 C.ar    1  UNL1       -0.0383
     16 C           0.5178   -2.4367   -0.5708 C.3     1  UNL1        0.1110
     17 C           2.8790   -2.0410   -1.3487 C.2     1  UNL1       -0.0799
     18 C           0.1372    0.5448   -0.0312 C.ar    1  UNL1        0.1666
     19 C           1.6605   -2.5640   -1.5382 C.2     1  UNL1       -0.0559
     20 C           1.5378    2.3665   -1.5758 C.ar    1  UNL1       -0.0546
     21 C           5.8908    1.1837    0.9976 C.3     1  UNL1       -0.0124
     22 C          -0.5729    1.5683   -0.6156 C.ar    1  UNL1        0.1623
     23 C           0.1446    2.4935   -1.3873 C.ar    1  UNL1       -0.0160
     24 C          -2.4381    1.8356    0.8354 C.3     1  UNL1        0.1024
     25 C          -3.9522    1.9460    0.7542 C.3     1  UNL1        0.0333
     26 C          -4.2298   -0.4420    0.9565 C.3     1  UNL1        0.0225
     27 C          -5.9774    0.8919   -0.0258 C.3     1  UNL1        0.0225
     28 C          -4.8472   -1.6775    0.3077 C.3     1  UNL1        0.0604
     29 C          -6.5543   -0.3753   -0.6506 C.3     1  UNL1        0.0604
     30 H           3.7205   -2.0431    0.5503 H       1  UNL1        0.0368
     31 H           5.1427   -0.5410   -0.8508 H       1  UNL1        0.0472
     32 H           0.6622   -2.0788    1.5843 H       1  UNL1        0.0772
     33 H           2.7732   -1.0635    2.6154 H       1  UNL1        0.0287
     34 H           1.6793    0.3114    2.5429 H       1  UNL1        0.0287
     35 H           3.7987    0.7360   -2.2449 H       1  UNL1        0.0329
     36 H           4.2815    1.9515   -1.0749 H       1  UNL1        0.0329
     37 H           3.3600    1.7598    1.6180 H       1  UNL1        0.0427
     38 H           4.1031    0.8765    2.9396 H       1  UNL1        0.0427
     39 H          -0.3556   -2.0902   -1.1375 H       1  UNL1        0.0675
     40 H           3.6491   -2.2132   -2.0951 H       1  UNL1        0.0573
     41 H           1.4748   -3.1242   -2.4513 H       1  UNL1        0.0596
     42 H           2.0549    3.0740   -2.2184 H       1  UNL1        0.0622
     43 H           6.3269    1.2803    1.9984 H       1  UNL1        0.0391
     44 H           5.6217    2.1873    0.6533 H       1  UNL1        0.0391
     45 H           6.6845    0.7951    0.3501 H       1  UNL1        0.0391
     46 H          -0.3807    3.3097   -1.8782 H       1  UNL1        0.0655
     47 H          -0.0237   -4.2976   -0.8720 H       1  UNL1        0.2104
     48 H          -2.1086    1.0509    1.5213 H       1  UNL1        0.0709
     49 H          -2.0480    2.7811    1.2347 H       1  UNL1        0.0709
     50 H          -4.3663    2.1318    1.7530 H       1  UNL1        0.0460
     51 H          -4.1981    2.8113    0.1258 H       1  UNL1        0.0460
     52 H          -4.6293   -0.3227    1.9719 H       1  UNL1        0.0449
     53 H          -3.1576   -0.6395    1.0289 H       1  UNL1        0.0449
     54 H          -6.2012    1.7430   -0.6790 H       1  UNL1        0.0449
     55 H          -6.4586    1.0715    0.9445 H       1  UNL1        0.0449
     56 H          -4.4008   -1.8864   -0.6724 H       1  UNL1        0.0572
     57 H          -4.6798   -2.5547    0.9411 H       1  UNL1        0.0572
     58 H          -7.6434   -0.2926   -0.7227 H       1  UNL1        0.0572
     59 H          -6.1664   -0.5398   -1.6634 H       1  UNL1        0.0572
@<TRIPOS>BOND
     1     1    10    1
     2     1    18    1
     3     2    16    1
     4     2    47    1
     5     3    22    1
     6     3    24    1
     7     4    28    1
     8     4    29    1
     9     5     9    1
    10     5    14    1
    11     5    21    1
    12     6    25    1
    13     6    26    1
    14     6    27    1
    15     7     8    1
    16     7    10    1
    17     7    11    1
    18     7    12    1
    19     8     9    1
    20     8    17    1
    21     8    30    1
    22     9    13    1
    23     9    31    1
    24    10    16    1
    25    10    32    1
    26    11    14    1
    27    11    33    1
    28    11    34    1
    29    12    15   ar
    30    12    18   ar
    31    13    15    1
    32    13    35    1
    33    13    36    1
    34    14    37    1
    35    14    38    1
    36    15    20   ar
    37    16    19    1
    38    16    39    1
    39    17    19    2
    40    17    40    1
    41    18    22   ar
    42    19    41    1
    43    20    23   ar
    44    20    42    1
    45    21    43    1
    46    21    44    1
    47    21    45    1
    48    22    23   ar
    49    23    46    1
    50    24    25    1
    51    24    48    1
    52    24    49    1
    53    25    50    1
    54    25    51    1
    55    26    28    1
    56    26    52    1
    57    26    53    1
    58    27    29    1
    59    27    54    1
    60    27    55    1
    61    28    56    1
    62    28    57    1
    63    29    58    1
    64    29    59    1
@<TRIPOS>MOLECULE
5484063
 44 48 0 0 0
SMALL
GASTEIGER

@<TRIPOS>ATOM
      1 S          -4.2279   -0.8168   -0.2344 S.O2    1  UNL1        0.2082
      2 O          -0.8324    1.0465    1.4692 O.3     1  UNL1       -0.4810
      3 O          -2.8529   -0.2442    0.4343 O.3     1  UNL1       -0.2046
      4 O          -0.9065    3.8172    0.6041 O.3     1  UNL1       -0.5033
      5 O          -5.2313    0.4691   -0.2088 O.3     1  UNL1       -0.2311
      6 O          -3.9413   -1.1200   -1.6242 O.2     1  UNL1       -0.1180
      7 O          -4.7870   -1.8364    0.6338 O.2     1  UNL1       -0.1180
      8 N           3.4834   -1.6876    0.2784 N.3     1  UNL1       -0.3015
      9 C           0.8506   -0.5826    0.8017 C.3     1  UNL1        0.0481
     10 C           1.0932   -1.6857   -0.2397 C.3     1  UNL1        0.0064
     11 C           2.5228   -1.4475   -0.8256 C.3     1  UNL1        0.0213
     12 C          -0.5908   -0.3975    1.3310 C.3     1  UNL1        0.1425
     13 C           1.8903   -0.7099    1.9326 C.3     1  UNL1       -0.0263
     14 C           0.9864    0.7415    0.1252 C.ar    1  UNL1        0.0116
     15 C           2.6638   -0.0551   -1.5316 C.3     1  UNL1       -0.0110
     16 C           3.3347   -0.7645    1.4081 C.3     1  UNL1       -0.0001
     17 C          -1.6858   -1.0623    0.4565 C.3     1  UNL1        0.1454
     18 C           1.8503    1.0484   -0.9106 C.ar    1  UNL1       -0.0383
     19 C          -0.0083   -1.7305   -1.2677 C.2     1  UNL1       -0.0798
     20 C           0.0437    1.6288    0.5936 C.ar    1  UNL1        0.1663
     21 C          -1.2740   -1.4249   -0.9455 C.2     1  UNL1       -0.0533
     22 C           4.8710   -1.7665   -0.1660 C.3     1  UNL1       -0.0124
     23 C           1.8243    2.3574   -1.3946 C.ar    1  UNL1       -0.0546
     24 C           0.0045    2.9281    0.1377 C.ar    1  UNL1        0.1588
     25 C           0.9195    3.2950   -0.8574 C.ar    1  UNL1       -0.0162
     26 H           1.0837   -2.6701    0.2526 H       1  UNL1        0.0368
     27 H           2.7064   -2.2209   -1.5845 H       1  UNL1        0.0472
     28 H          -0.6845   -0.8075    2.3450 H       1  UNL1        0.0772
     29 H           1.6866   -1.6311    2.4953 H       1  UNL1        0.0287
     30 H           1.8049    0.1180    2.6482 H       1  UNL1        0.0287
     31 H           2.3065   -0.1751   -2.5635 H       1  UNL1        0.0329
     32 H           3.7105    0.2558   -1.6039 H       1  UNL1        0.0329
     33 H           3.6704    0.2442    1.1374 H       1  UNL1        0.0427
     34 H           3.9777   -1.0898    2.2355 H       1  UNL1        0.0427
     35 H          -1.9592   -2.0079    0.9449 H       1  UNL1        0.0703
     36 H           0.2261   -2.0717   -2.2718 H       1  UNL1        0.0573
     37 H          -1.9494   -1.5856   -1.7653 H       1  UNL1        0.0596
     38 H           5.2722   -0.8001   -0.4868 H       1  UNL1        0.0391
     39 H           4.9768   -2.4780   -0.9922 H       1  UNL1        0.0391
     40 H           5.5066   -2.1384    0.6458 H       1  UNL1        0.0391
     41 H           2.4814    2.6560   -2.2070 H       1  UNL1        0.0622
     42 H           0.9121    4.3080   -1.2532 H       1  UNL1        0.0655
     43 H          -1.4528    3.3721    1.2750 H       1  UNL1        0.2923
     44 H          -5.2731    0.9539    0.6487 H       1  UNL1        0.2469
@<TRIPOS>BOND
     1     1     3    1
     2     1     5    1
     3     1     6    2
     4     1     7    2
     5     2    12    1
     6     2    20    1
     7     3    17    1
     8     4    24    1
     9     4    43    1
    10     5    44    1
    11     8    11    1
    12     8    16    1
    13     8    22    1
    14     9    10    1
    15     9    12    1
    16     9    13    1
    17     9    14    1
    18    10    11    1
    19    10    19    1
    20    10    26    1
    21    11    15    1
    22    11    27    1
    23    12    17    1
    24    12    28    1
    25    13    16    1
    26    13    29    1
    27    13    30    1
    28    14    18   ar
    29    14    20   ar
    30    15    18    1
    31    15    31    1
    32    15    32    1
    33    16    33    1
    34    16    34    1
    35    17    21    1
    36    17    35    1
    37    18    23   ar
    38    19    21    2
    39    19    36    1
    40    20    24   ar
    41    21    37    1
    42    22    38    1
    43    22    39    1
    44    22    40    1
    45    23    25   ar
    46    23    41    1
    47    24    25   ar
    48    25    42    1
@<TRIPOS>MOLECULE
622761
 56 60 0 0 0
SMALL
GASTEIGER

@<TRIPOS>ATOM
      1 O           0.3681   -1.1640   -0.6645 O.3     1  UNL1       -0.4799
      2 O          -2.9448   -1.6175   -0.3755 O.3     1  UNL1       -0.4534
      3 O           2.7304   -1.9859    0.8432 O.3     1  UNL1       -0.4221
      4 O          -3.7445   -2.2745    1.6866 O.2     1  UNL1       -0.2508
      5 O           4.1829   -1.2622   -0.8401 O.2     1  UNL1       -0.2504
      6 N          -0.3663    3.9610   -1.1039 N.3     1  UNL1       -0.3015
      7 C          -0.5122    1.0850   -0.7234 C.3     1  UNL1        0.0491
      8 C          -1.5526    2.0504   -0.1448 C.3     1  UNL1        0.0064
      9 C          -0.7963    3.3765    0.1902 C.3     1  UNL1        0.0213
     10 C          -0.8917   -0.4056   -0.8268 C.3     1  UNL1        0.1509
     11 C           0.0150    1.6743   -2.0495 C.3     1  UNL1       -0.0263
     12 C           0.6226    0.9210    0.2275 C.ar    1  UNL1        0.0116
     13 C           0.3480    3.1699    1.2432 C.3     1  UNL1       -0.0110
     14 C           0.5426    3.1109   -1.8806 C.3     1  UNL1       -0.0001
     15 C           1.0968    1.8719    1.1093 C.ar    1  UNL1       -0.0383
     16 C          -1.8816   -0.9045    0.2615 C.3     1  UNL1        0.1587
     17 C          -2.3293    1.4607    0.9976 C.2     1  UNL1       -0.0788
     18 C           1.1220   -0.3627    0.1594 C.ar    1  UNL1        0.1673
     19 C          -2.4846    0.1400    1.1578 C.2     1  UNL1       -0.0439
     20 C           0.1477    5.3214   -0.9859 C.3     1  UNL1       -0.0124
     21 C           2.1959    1.5129    1.8900 C.ar    1  UNL1       -0.0545
     22 C           2.2154   -0.7342    0.9077 C.ar    1  UNL1        0.1733
     23 C           2.7607    0.2244    1.7738 C.ar    1  UNL1       -0.0153
     24 C          -3.8087   -2.2614    0.4650 C.2     1  UNL1        0.3075
     25 C          -4.8647   -2.9595   -0.3594 C.3     1  UNL1        0.0421
     26 C           3.7571   -2.1471   -0.1103 C.2     1  UNL1        0.3122
     27 C          -4.2639   -3.9694   -1.3214 C.3     1  UNL1       -0.0552
     28 C           4.2489   -3.5766   -0.0890 C.3     1  UNL1        0.0425
     29 C           4.0873   -4.2553   -1.4379 C.3     1  UNL1       -0.0552
     30 H          -2.3087    2.2746   -0.9132 H       1  UNL1        0.0368
     31 H          -1.5218    4.0750    0.6298 H       1  UNL1        0.0472
     32 H          -1.2757   -0.6449   -1.8261 H       1  UNL1        0.0783
     33 H          -0.8018    1.6810   -2.7837 H       1  UNL1        0.0287
     34 H           0.8121    1.0533   -2.4783 H       1  UNL1        0.0287
     35 H          -0.1167    3.1710    2.2385 H       1  UNL1        0.0329
     36 H           1.0540    4.0060    1.2328 H       1  UNL1        0.0329
     37 H           1.5397    3.0871   -1.4237 H       1  UNL1        0.0427
     38 H           0.6755    3.5371   -2.8830 H       1  UNL1        0.0427
     39 H          -1.3529   -1.6228    0.9039 H       1  UNL1        0.0817
     40 H          -2.8100    2.1392    1.6967 H       1  UNL1        0.0574
     41 H          -3.0452   -0.1581    2.0375 H       1  UNL1        0.0607
     42 H           0.2528    5.7727   -1.9789 H       1  UNL1        0.0391
     43 H           1.1248    5.3658   -0.4946 H       1  UNL1        0.0391
     44 H          -0.5505    5.9563   -0.4295 H       1  UNL1        0.0391
     45 H           2.6147    2.2155    2.6055 H       1  UNL1        0.0622
     46 H           3.6164   -0.0322    2.3945 H       1  UNL1        0.0656
     47 H          -5.5445   -3.4725    0.3302 H       1  UNL1        0.0375
     48 H          -5.4506   -2.2043   -0.8937 H       1  UNL1        0.0375
     49 H          -3.6344   -4.6904   -0.7896 H       1  UNL1        0.0235
     50 H          -5.0561   -4.5190   -1.8389 H       1  UNL1        0.0235
     51 H          -3.6432   -3.4791   -2.0784 H       1  UNL1        0.0235
     52 H           3.6980   -4.1441    0.6696 H       1  UNL1        0.0375
     53 H           5.2997   -3.5659    0.2194 H       1  UNL1        0.0375
     54 H           4.6591   -3.7315   -2.2109 H       1  UNL1        0.0235
     55 H           4.4399   -5.2900   -1.3912 H       1  UNL1        0.0235
     56 H           3.0370   -4.2606   -1.7474 H       1  UNL1        0.0235
@<TRIPOS>BOND
     1     1    10    1
     2     1    18    1
     3     2    16    1
     4     2    24    1
     5     3    22    1
     6     3    26    1
     7     4    24    2
     8     5    26    2
     9     6     9    1
    10     6    14    1
    11     6    20    1
    12     7     8    1
    13     7    10    1
    14     7    11    1
    15     7    12    1
    16     8     9    1
    17     8    17    1
    18     8    30    1
    19     9    13    1
    20     9    31    1
    21    10    16    1
    22    10    32    1
    23    11    14    1
    24    11    33    1
    25    11    34    1
    26    12    15   ar
    27    12    18   ar
    28    13    15    1
    29    13    35    1
    30    13    36    1
    31    14    37    1
    32    14    38    1
    33    15    21   ar
    34    16    19    1
    35    16    39    1
    36    17    19    2
    37    17    40    1
    38    18    22   ar
    39    19    41    1
    40    20    42    1
    41    20    43    1
    42    20    44    1
    43    21    23   ar
    44    21    45    1
    45    22    23   ar
    46    23    46    1
    47    24    25    1
    48    25    27    1
    49    25    47    1
    50    25    48    1
    51    26    28    1
    52    27    49    1
    53    27    50    1
    54    27    51    1
    55    28    29    1
    56    28    52    1
    57    28    53    1
    58    29    54    1
    59    29    55    1
    60    29    56    1
@<TRIPOS>MOLECULE
5488489
 39 43 0 0 0
SMALL
GASTEIGER

@<TRIPOS>ATOM
      1 O          -2.2449    0.3932   -1.0787 O.3     1  UNL1       -0.4811
      2 O          -3.1934    2.2491    0.5128 O.3     1  UNL1       -0.3841
      3 O           2.5366   -1.7216    1.4852 O.2     1  UNL1       -0.2903
      4 O          -3.5027   -2.1746   -0.5904 O.3     1  UNL1       -0.5033
      5 N           3.0024    0.5855   -0.6346 N.3     1  UNL1       -0.2951
      6 C           0.1064    0.9042   -0.6706 C.3     1  UNL1        0.0488
      7 C           0.9893    1.4841    0.4420 C.3     1  UNL1        0.0133
      8 C          -1.3109    1.5029   -0.8410 C.3     1  UNL1        0.1399
      9 C           2.2032    0.5256    0.6074 C.3     1  UNL1        0.0806
     10 C           0.9073    0.8647   -1.9863 C.3     1  UNL1       -0.0263
     11 C          -0.3009   -0.4690   -0.2525 C.ar    1  UNL1        0.0189
     12 C           2.2730    0.1695   -1.8392 C.3     1  UNL1        0.0002
     13 C          -1.7829    2.3724    0.3524 C.3     1  UNL1        0.1110
     14 C           0.2046    1.7270    1.7075 C.2     1  UNL1       -0.0794
     15 C           0.4571   -1.3798    0.4549 C.ar    1  UNL1        0.0266
     16 C          -1.6210   -0.7065   -0.5568 C.ar    1  UNL1        0.1667
     17 C           1.7939   -0.9335    0.9084 C.2     1  UNL1        0.1811
     18 C          -1.0782    2.1166    1.6581 C.2     1  UNL1       -0.0559
     19 C           4.2981   -0.0766   -0.5330 C.3     1  UNL1       -0.0121
     20 C          -0.1017   -2.6188    0.7590 C.ar    1  UNL1       -0.0472
     21 C          -2.2069   -1.9237   -0.2784 C.ar    1  UNL1        0.1588
     22 C          -1.4286   -2.8910    0.3736 C.ar    1  UNL1       -0.0158
     23 H           1.3731    2.4695    0.1363 H       1  UNL1        0.0372
     24 H          -1.3632    2.1249   -1.7440 H       1  UNL1        0.0772
     25 H           2.8022    0.8828    1.4556 H       1  UNL1        0.0551
     26 H           1.0762    1.8959   -2.3245 H       1  UNL1        0.0287
     27 H           0.3395    0.3640   -2.7810 H       1  UNL1        0.0287
     28 H           2.1321   -0.9187   -1.8534 H       1  UNL1        0.0427
     29 H           2.8687    0.4112   -2.7284 H       1  UNL1        0.0427
     30 H          -1.5889    3.4231    0.0996 H       1  UNL1        0.0675
     31 H           0.6996    1.6242    2.6680 H       1  UNL1        0.0573
     32 H          -1.6019    2.3287    2.5856 H       1  UNL1        0.0596
     33 H           4.9182    0.1691   -1.4024 H       1  UNL1        0.0391
     34 H           4.2127   -1.1669   -0.4801 H       1  UNL1        0.0391
     35 H           4.8465    0.2728    0.3486 H       1  UNL1        0.0391
     36 H           0.4586   -3.3709    1.3063 H       1  UNL1        0.0626
     37 H          -1.8556   -3.8602    0.6212 H       1  UNL1        0.0655
     38 H          -3.4678    2.8540    1.2232 H       1  UNL1        0.2104
     39 H          -3.7250   -3.0779   -0.3063 H       1  UNL1        0.2923
@<TRIPOS>BOND
     1     1     8    1
     2     1    16    1
     3     2    13    1
     4     2    38    1
     5     3    17    2
     6     4    21    1
     7     4    39    1
     8     5     9    1
     9     5    12    1
    10     5    19    1
    11     6     7    1
    12     6     8    1
    13     6    10    1
    14     6    11    1
    15     7     9    1
    16     7    14    1
    17     7    23    1
    18     8    13    1
    19     8    24    1
    20     9    17    1
    21     9    25    1
    22    10    12    1
    23    10    26    1
    24    10    27    1
    25    11    15   ar
    26    11    16   ar
    27    12    28    1
    28    12    29    1
    29    13    18    1
    30    13    30    1
    31    14    18    2
    32    14    31    1
    33    15    17    1
    34    15    20   ar
    35    16    21   ar
    36    18    32    1
    37    19    33    1
    38    19    34    1
    39    19    35    1
    40    20    22   ar
    41    20    36    1
    42    21    22   ar
    43    22    37    1
@<TRIPOS>MOLECULE
5464303
 45 49 0 0 0
SMALL
GASTEIGER

@<TRIPOS>ATOM
      1 O          -1.9138   -0.0484   -1.2792 O.3     1  UNL1       -0.4811
      2 O          -2.3499    1.1011    1.1643 O.3     1  UNL1       -0.3852
      3 O          -3.0846   -2.6449   -0.6186 O.3     1  UNL1       -0.5033
      4 N           3.2106    0.3177   -0.4940 N.3     1  UNL1       -0.3018
      5 C           0.3234    0.6322   -0.6631 C.3     1  UNL1        0.0445
      6 C           1.1970    1.4386    0.2990 C.3     1  UNL1       -0.0117
      7 C          -1.0997    1.1413   -0.9699 C.3     1  UNL1        0.1386
      8 C           2.3827    0.5191    0.7208 C.3     1  UNL1        0.0178
      9 C           1.1591    0.3540   -1.9357 C.3     1  UNL1       -0.0266
     10 C          -0.0757   -0.6664   -0.0647 C.ar    1  UNL1        0.0113
     11 C          -1.7818    1.9636    0.1697 C.3     1  UNL1        0.1008
     12 C           0.4081    2.0493    1.4578 C.3     1  UNL1       -0.0451
     13 C          -0.7748    2.8587    0.9089 C.3     1  UNL1       -0.0204
     14 C           1.9053   -0.8001    1.4240 C.3     1  UNL1       -0.0113
     15 C           2.5071   -0.3197   -1.6129 C.3     1  UNL1       -0.0002
     16 C           0.6498   -1.4012    0.8510 C.ar    1  UNL1       -0.0383
     17 C          -1.3203   -1.0424   -0.5306 C.ar    1  UNL1        0.1663
     18 C          -2.9316    2.8047   -0.3954 C.3     1  UNL1       -0.0326
     19 C           4.4891   -0.3321   -0.2272 C.3     1  UNL1       -0.0125
     20 C           0.1047   -2.6231    1.2439 C.ar    1  UNL1       -0.0546
     21 C          -1.8684   -2.2513   -0.1692 C.ar    1  UNL1        0.1588
     22 C          -1.1361   -3.0508    0.7211 C.ar    1  UNL1       -0.0162
     23 H           1.6129    2.2993   -0.2489 H       1  UNL1        0.0326
     24 H          -1.0656    1.7593   -1.8768 H       1  UNL1        0.0771
     25 H           2.9973    1.0751    1.4414 H       1  UNL1        0.0469
     26 H           1.3532    1.3061   -2.4480 H       1  UNL1        0.0287
     27 H           0.6125   -0.2749   -2.6504 H       1  UNL1        0.0287
     28 H           1.0636    2.7151    2.0319 H       1  UNL1        0.0270
     29 H           0.0531    1.2844    2.1567 H       1  UNL1        0.0270
     30 H          -1.2635    3.3585    1.7549 H       1  UNL1        0.0294
     31 H          -0.4038    3.6454    0.2401 H       1  UNL1        0.0294
     32 H           1.6948   -0.5564    2.4739 H       1  UNL1        0.0329
     33 H           2.7006   -1.5519    1.4376 H       1  UNL1        0.0329
     34 H           2.3479   -1.3870   -1.4148 H       1  UNL1        0.0427
     35 H           3.1304   -0.2661   -2.5143 H       1  UNL1        0.0427
     36 H          -2.5776    3.5187   -1.1459 H       1  UNL1        0.0258
     37 H          -3.6914    2.1633   -0.8561 H       1  UNL1        0.0258
     38 H          -3.4386    3.3642    0.3992 H       1  UNL1        0.0258
     39 H           5.1383   -0.2637   -1.1075 H       1  UNL1        0.0391
     40 H           4.3827   -1.3914    0.0268 H       1  UNL1        0.0391
     41 H           5.0201    0.1697    0.5891 H       1  UNL1        0.0391
     42 H           0.6226   -3.2493    1.9654 H       1  UNL1        0.0622
     43 H          -2.7850    1.6532    1.8362 H       1  UNL1        0.2103
     44 H          -1.5403   -4.0077    1.0441 H       1  UNL1        0.0655
     45 H          -3.4311   -1.9535   -1.2092 H       1  UNL1        0.2923
@<TRIPOS>BOND
     1     1     7    1
     2     1    17    1
     3     2    11    1
     4     2    43    1
     5     3    21    1
     6     3    45    1
     7     4     8    1
     8     4    15    1
     9     4    19    1
    10     5     6    1
    11     5     7    1
    12     5     9    1
    13     5    10    1
    14     6     8    1
    15     6    12    1
    16     6    23    1
    17     7    11    1
    18     7    24    1
    19     8    14    1
    20     8    25    1
    21     9    15    1
    22     9    26    1
    23     9    27    1
    24    10    16   ar
    25    10    17   ar
    26    11    13    1
    27    11    18    1
    28    12    13    1
    29    12    28    1
    30    12    29    1
    31    13    30    1
    32    13    31    1
    33    14    16    1
    34    14    32    1
    35    14    33    1
    36    15    34    1
    37    15    35    1
    38    16    20   ar
    39    17    21   ar
    40    18    36    1
    41    18    37    1
    42    18    38    1
    43    19    39    1
    44    19    40    1
    45    19    41    1
    46    20    22   ar
    47    20    42    1
    48    21    22   ar
    49    22    44    1
@<TRIPOS>MOLECULE
5359271
 46 50 0 0 0
SMALL
GASTEIGER

@<TRIPOS>ATOM
      1 O          -1.3093   -1.2177    1.0360 O.3     1  UNL1       -0.4811
      2 O          -1.1251   -3.4972   -0.2247 O.3     1  UNL1       -0.3841
      3 O          -3.5953    0.2639    0.0309 O.3     1  UNL1       -0.4886
      4 N           3.3745    1.1124    0.6476 N.3     1  UNL1       -0.3015
      5 C           1.0199   -0.5841    0.7124 C.3     1  UNL1        0.0480
      6 C           2.2082   -0.8528   -0.2237 C.3     1  UNL1        0.0064
      7 C           2.8116    0.5396   -0.5991 C.3     1  UNL1        0.0213
      8 C           0.0579   -1.7583    1.0088 C.3     1  UNL1        0.1399
      9 C           1.5246    0.1120    1.9917 C.3     1  UNL1       -0.0263
     10 C           0.0475    0.2953   -0.0019 C.ar    1  UNL1        0.0116
     11 C           1.7873    1.4623   -1.3452 C.3     1  UNL1       -0.0110
     12 C           2.3767    1.3568    1.6939 C.3     1  UNL1       -0.0001
     13 C           0.3566    1.2918   -0.9101 C.ar    1  UNL1       -0.0383
     14 C           0.1664   -2.9435    0.0142 C.3     1  UNL1        0.1110
     15 C           1.8055   -1.7020   -1.4021 C.2     1  UNL1       -0.0799
     16 C          -1.2474   -0.0824    0.2740 C.ar    1  UNL1        0.1666
     17 C           0.8566   -2.6434   -1.2899 C.2     1  UNL1       -0.0559
     18 C          -0.7096    2.0071   -1.4579 C.ar    1  UNL1       -0.0546
     19 C           4.2085    2.2883    0.4215 C.3     1  UNL1       -0.0124
     20 C          -2.3155    0.6136   -0.2476 C.ar    1  UNL1        0.1622
     21 C          -2.0360    1.6808   -1.1109 C.ar    1  UNL1       -0.0160
     22 C          -4.5781    1.3013    0.0046 C.3     1  UNL1        0.0870
     23 C          -5.6854    0.9562    0.9775 C.3     1  UNL1       -0.0307
     24 H           2.9795   -1.4281    0.3107 H       1  UNL1        0.0368
     25 H           3.6550    0.3656   -1.2817 H       1  UNL1        0.0472
     26 H           0.2354   -2.1566    2.0162 H       1  UNL1        0.0772
     27 H           2.1338   -0.6013    2.5632 H       1  UNL1        0.0287
     28 H           0.6905    0.4020    2.6437 H       1  UNL1        0.0287
     29 H           1.8312    1.2026   -2.4117 H       1  UNL1        0.0329
     30 H           2.0697    2.5172   -1.2748 H       1  UNL1        0.0329
     31 H           1.7254    2.1981    1.4263 H       1  UNL1        0.0427
     32 H           2.8826    1.6448    2.6241 H       1  UNL1        0.0427
     33 H           0.7600   -3.7357    0.4889 H       1  UNL1        0.0675
     34 H           2.3254   -1.5747   -2.3466 H       1  UNL1        0.0573
     35 H           0.6269   -3.2661   -2.1497 H       1  UNL1        0.0596
     36 H          -0.5265    2.7984   -2.1800 H       1  UNL1        0.0622
     37 H           3.6327    3.1677    0.1164 H       1  UNL1        0.0391
     38 H           4.9675    2.0879   -0.3425 H       1  UNL1        0.0391
     39 H           4.7520    2.5470    1.3374 H       1  UNL1        0.0391
     40 H          -2.8275    2.2515   -1.5896 H       1  UNL1        0.0655
     41 H          -1.5213   -3.6972    0.6406 H       1  UNL1        0.2104
     42 H          -4.1572    2.2670    0.3112 H       1  UNL1        0.0694
     43 H          -4.9852    1.3838   -1.0091 H       1  UNL1        0.0694
     44 H          -6.4623    1.7259    0.9758 H       1  UNL1        0.0262
     45 H          -6.1406   -0.0054    0.7180 H       1  UNL1        0.0262
     46 H          -5.2889    0.8561    1.9934 H       1  UNL1        0.0262
@<TRIPOS>BOND
     1     1     8    1
     2     1    16    1
     3     2    14    1
     4     2    41    1
     5     3    20    1
     6     3    22    1
     7     4     7    1
     8     4    12    1
     9     4    19    1
    10     5     6    1
    11     5     8    1
    12     5     9    1
    13     5    10    1
    14     6     7    1
    15     6    15    1
    16     6    24    1
    17     7    11    1
    18     7    25    1
    19     8    14    1
    20     8    26    1
    21     9    12    1
    22     9    27    1
    23     9    28    1
    24    10    13   ar
    25    10    16   ar
    26    11    13    1
    27    11    29    1
    28    11    30    1
    29    12    31    1
    30    12    32    1
    31    13    18   ar
    32    14    17    1
    33    14    33    1
    34    15    17    2
    35    15    34    1
    36    16    20   ar
    37    17    35    1
    38    18    21   ar
    39    18    36    1
    40    19    37    1
    41    19    38    1
    42    19    39    1
    43    20    21   ar
    44    21    40    1
    45    22    23    1
    46    22    42    1
    47    22    43    1
    48    23    44    1
    49    23    45    1
    50    23    46    1
@<TRIPOS>MOLECULE
117065144
 40 44 0 0 0
SMALL
GASTEIGER

@<TRIPOS>ATOM
      1 O          -1.9931   -0.4740    1.2003 O.3     1  UNL1       -0.4811
      2 O          -2.7826   -2.5170   -0.2217 O.3     1  UNL1       -0.3841
      3 O          -3.6221    1.8419    0.5577 O.3     1  UNL1       -0.5033
      4 N           3.1777   -0.0103    0.4474 N.3     1  UNL1       -0.3015
      5 C           0.3699   -0.7149    0.6616 C.3     1  UNL1        0.0480
      6 C           1.2912   -1.3046   -0.4172 C.3     1  UNL1        0.0064
      7 C           2.3441   -0.2023   -0.7641 C.3     1  UNL1        0.0213
      8 C          -0.9377   -1.4750    0.9848 C.3     1  UNL1        0.1399
      9 C           1.1988   -0.3908    1.9202 C.3     1  UNL1       -0.0263
     10 C          -0.2516    0.5303    0.1206 C.ar    1  UNL1        0.0116
     11 C           1.6887    1.1053   -1.3278 C.3     1  UNL1       -0.0110
     12 C           2.4317    0.4752    1.6126 C.3     1  UNL1       -0.0001
     13 C           0.3386    1.4307   -0.7479 C.ar    1  UNL1       -0.0383
     14 C          -1.3631   -2.5068   -0.0924 C.3     1  UNL1        0.1110
     15 C           0.5064   -1.8181   -1.5972 C.2     1  UNL1       -0.0799
     16 C          -1.5672    0.6307    0.5135 C.ar    1  UNL1        0.1663
     17 C          -0.7156   -2.3490   -1.4426 C.2     1  UNL1       -0.0559
     18 C           4.3734    0.7914    0.2084 C.3     1  UNL1       -0.0124
     19 C          -0.4183    2.5417   -1.1243 C.ar    1  UNL1       -0.0546
     20 C          -2.3310    1.7218    0.1621 C.ar    1  UNL1        0.1588
     21 C          -1.7380    2.6938   -0.6539 C.ar    1  UNL1       -0.0162
     22 H           1.8277   -2.1760   -0.0120 H       1  UNL1        0.0368
     23 H           3.0029   -0.6035   -1.5467 H       1  UNL1        0.0472
     24 H          -0.8453   -2.0124    1.9375 H       1  UNL1        0.0772
     25 H           0.5899    0.1174    2.6791 H       1  UNL1        0.0287
     26 H           1.5365   -1.3337    2.3712 H       1  UNL1        0.0287
     27 H           1.5474    0.9599   -2.4075 H       1  UNL1        0.0329
     28 H           2.3531    1.9681   -1.2191 H       1  UNL1        0.0329
     29 H           3.0803    0.4581    2.4975 H       1  UNL1        0.0427
     30 H           2.1273    1.5203    1.4761 H       1  UNL1        0.0427
     31 H          -1.0774   -3.5034    0.2688 H       1  UNL1        0.0675
     32 H           0.9601   -1.7946   -2.5831 H       1  UNL1        0.0573
     33 H          -1.2274   -2.7500   -2.3129 H       1  UNL1        0.0596
     34 H           5.0445    0.7347    1.0729 H       1  UNL1        0.0391
     35 H           4.1501    1.8477    0.0287 H       1  UNL1        0.0391
     36 H           4.9380    0.4053   -0.6473 H       1  UNL1        0.0391
     37 H          -0.0060    3.2827   -1.8039 H       1  UNL1        0.0622
     38 H          -2.3067    3.5664   -0.9674 H       1  UNL1        0.0655
     39 H          -3.0213   -3.2211   -0.8488 H       1  UNL1        0.2104
     40 H          -3.9843    2.6709    0.2003 H       1  UNL1        0.2923
@<TRIPOS>BOND
     1     1     8    1
     2     1    16    1
     3     2    14    1
     4     2    39    1
     5     3    20    1
     6     3    40    1
     7     4     7    1
     8     4    12    1
     9     4    18    1
    10     5     6    1
    11     5     8    1
    12     5     9    1
    13     5    10    1
    14     6     7    1
    15     6    15    1
    16     6    22    1
    17     7    11    1
    18     7    23    1
    19     8    14    1
    20     8    24    1
    21     9    12    1
    22     9    25    1
    23     9    26    1
    24    10    13   ar
    25    10    16   ar
    26    11    13    1
    27    11    27    1
    28    11    28    1
    29    12    29    1
    30    12    30    1
    31    13    19   ar
    32    14    17    1
    33    14    31    1
    34    15    17    2
    35    15    32    1
    36    16    20   ar
    37    17    33    1
    38    18    34    1
    39    18    35    1
    40    18    36    1
    41    19    21   ar
    42    19    37    1
    43    20    21   ar
    44    21    38    1
@<TRIPOS>MOLECULE
5488579
 51 56 0 0 0
SMALL
GASTEIGER

@<TRIPOS>ATOM
      1 O          -0.0116   -0.8854   -1.4259 O.3     1  UNL1       -0.4799
      2 O          -1.8468    0.7078   -0.4703 O.3     1  UNL1       -0.4499
      3 O          -0.4626   -3.5812   -0.4462 O.3     1  UNL1       -0.5033
      4 O          -2.7942    2.5631    0.5092 O.2     1  UNL1       -0.2449
      5 N           4.6248    1.2947   -0.2995 N.3     1  UNL1       -0.3015
      6 N          -6.4563    0.5203    0.5742 N.ar    1  UNL1       -0.2624
      7 C           1.8708    0.5308   -0.8073 C.3     1  UNL1        0.0491
      8 C           2.2529    1.6355    0.1896 C.3     1  UNL1        0.0064
      9 C           3.6339    1.2335    0.8021 C.3     1  UNL1        0.0213
     10 C           0.4209    0.5178   -1.3456 C.3     1  UNL1        0.1509
     11 C           2.9252    0.4688   -1.9300 C.3     1  UNL1       -0.0263
     12 C           1.8233   -0.7690   -0.0742 C.ar    1  UNL1        0.0116
     13 C           3.5822   -0.1335    1.5676 C.3     1  UNL1       -0.0110
     14 C           4.3605    0.3520   -1.3910 C.3     1  UNL1       -0.0001
     15 C           2.6317   -1.1439    0.9837 C.ar    1  UNL1       -0.0383
     16 C          -0.5803    1.3604   -0.5129 C.3     1  UNL1        0.1590
     17 C           1.1610    1.8718    1.2017 C.2     1  UNL1       -0.0788
     18 C           0.7729   -1.5415   -0.5163 C.ar    1  UNL1        0.1664
     19 C          -0.1322    1.7249    0.8775 C.2     1  UNL1       -0.0439
     20 C           6.0078    1.2062    0.1578 C.3     1  UNL1       -0.0124
     21 C           2.4271   -2.4155    1.5220 C.ar    1  UNL1       -0.0546
     22 C           0.5566   -2.8029   -0.0067 C.ar    1  UNL1        0.1588
     23 C           1.4079   -3.2457    1.0138 C.ar    1  UNL1       -0.0162
     24 C          -2.8682    1.4269    0.0676 C.2     1  UNL1        0.3413
     25 C          -4.1263    0.6385    0.0550 C.ar    1  UNL1        0.0770
     26 C          -4.1307   -0.6358   -0.4593 C.ar    1  UNL1       -0.0449
     27 C          -5.2783    1.1833    0.5557 C.ar    1  UNL1        0.0415
     28 C          -5.3238   -1.3497   -0.4577 C.ar    1  UNL1       -0.0428
     29 C          -6.4483   -0.7323    0.0657 C.ar    1  UNL1        0.0276
     30 H           2.3789    2.5901   -0.3436 H       1  UNL1        0.0368
     31 H           3.9150    2.0074    1.5300 H       1  UNL1        0.0472
     32 H           0.3895    0.8920   -2.3772 H       1  UNL1        0.0783
     33 H           2.8506    1.3837   -2.5334 H       1  UNL1        0.0287
     34 H           2.7338   -0.3704   -2.6112 H       1  UNL1        0.0287
     35 H           3.2379    0.0777    2.5892 H       1  UNL1        0.0329
     36 H           4.5773   -0.5783    1.6653 H       1  UNL1        0.0329
     37 H           4.5560   -0.6800   -1.0743 H       1  UNL1        0.0427
     38 H           5.0466    0.5521   -2.2237 H       1  UNL1        0.0427
     39 H          -0.7131    2.3109   -1.0504 H       1  UNL1        0.0817
     40 H           1.4313    2.1910    2.2035 H       1  UNL1        0.0574
     41 H          -0.8506    1.9212    1.6662 H       1  UNL1        0.0607
     42 H           6.2734    0.2095    0.5237 H       1  UNL1        0.0391
     43 H           6.2029    1.9321    0.9546 H       1  UNL1        0.0391
     44 H           6.6925    1.4542   -0.6612 H       1  UNL1        0.0391
     45 H           3.0331   -2.7640    2.3540 H       1  UNL1        0.0622
     46 H           1.2620   -4.2305    1.4517 H       1  UNL1        0.0655
     47 H          -0.9428   -3.0946   -1.1387 H       1  UNL1        0.2923
     48 H          -3.2495   -1.1193   -0.8685 H       1  UNL1        0.0627
     49 H          -5.3203    2.1846    0.9709 H       1  UNL1        0.0838
     50 H          -5.3723   -2.3578   -0.8533 H       1  UNL1        0.0633
     51 H          -7.4035   -1.2466    0.0902 H       1  UNL1        0.0829
@<TRIPOS>BOND
     1     1    10    1
     2     1    18    1
     3     2    16    1
     4     2    24    1
     5     3    22    1
     6     3    47    1
     7     4    24    2
     8     5     9    1
     9     5    14    1
    10     5    20    1
    11     6    27   ar
    12     6    29   ar
    13     7     8    1
    14     7    10    1
    15     7    11    1
    16     7    12    1
    17     8     9    1
    18     8    17    1
    19     8    30    1
    20     9    13    1
    21     9    31    1
    22    10    16    1
    23    10    32    1
    24    11    14    1
    25    11    33    1
    26    11    34    1
    27    12    15   ar
    28    12    18   ar
    29    13    15    1
    30    13    35    1
    31    13    36    1
    32    14    37    1
    33    14    38    1
    34    15    21   ar
    35    16    19    1
    36    16    39    1
    37    17    19    2
    38    17    40    1
    39    18    22   ar
    40    19    41    1
    41    20    42    1
    42    20    43    1
    43    20    44    1
    44    21    23   ar
    45    21    45    1
    46    22    23   ar
    47    23    46    1
    48    24    25    1
    49    25    26   ar
    50    25    27   ar
    51    26    28   ar
    52    26    48    1
    53    27    49    1
    54    28    29   ar
    55    28    50    1
    56    29    51    1
@<TRIPOS>MOLECULE
520352
 45 49 0 0 0
SMALL
GASTEIGER

@<TRIPOS>ATOM
      1 O          -1.2851    1.1643    0.8789 O.3     1  UNL1       -0.4799
      2 O          -3.0841   -1.1088   -0.8152 O.3     1  UNL1       -0.4536
      3 O          -0.7143    4.0178    0.6261 O.3     1  UNL1       -0.5033
      4 O          -4.0992    0.4171    0.5909 O.2     1  UNL1       -0.2511
      5 N           2.9266   -1.9148    0.6584 N.3     1  UNL1       -0.3015
      6 C           0.2966   -0.6017    0.4141 C.3     1  UNL1        0.0491
      7 C           0.7808   -1.6163   -0.6242 C.3     1  UNL1        0.0064
      8 C           2.3388   -1.5180   -0.6493 C.3     1  UNL1        0.0213
      9 C          -1.2021   -0.2393    0.4189 C.3     1  UNL1        0.1509
     10 C           0.8290   -1.0321    1.7979 C.3     1  UNL1       -0.0263
     11 C           0.8137    0.7562    0.0824 C.ar    1  UNL1        0.0116
     12 C           2.8528   -0.0913   -1.0542 C.3     1  UNL1       -0.0110
     13 C           2.3611   -1.1899    1.8075 C.3     1  UNL1       -0.0001
     14 C           2.0106    1.0464   -0.5435 C.ar    1  UNL1       -0.0383
     15 C          -1.9019   -0.3181   -0.9657 C.3     1  UNL1        0.1587
     16 C           0.1183   -1.4459   -1.9615 C.2     1  UNL1       -0.0788
     17 C          -0.1087    1.7188    0.4348 C.ar    1  UNL1        0.1664
     18 C          -1.0891   -0.8822   -2.0978 C.2     1  UNL1       -0.0439
     19 C           2.8806   -3.3615    0.8717 C.3     1  UNL1       -0.0124
     20 C           2.3108    2.3955   -0.7314 C.ar    1  UNL1       -0.0546
     21 C           0.1726    3.0560    0.2729 C.ar    1  UNL1        0.1588
     22 C           1.4039    3.3914   -0.3086 C.ar    1  UNL1       -0.0162
     23 C          -3.9398   -0.7248    0.1819 C.2     1  UNL1        0.3046
     24 C          -4.6719   -1.9187    0.7151 C.3     1  UNL1        0.0333
     25 H           0.4945   -2.6277   -0.3050 H       1  UNL1        0.0368
     26 H           2.7345   -2.2041   -1.4110 H       1  UNL1        0.0472
     27 H          -1.7080   -0.8502    1.1752 H       1  UNL1        0.0783
     28 H           0.3676   -1.9879    2.0784 H       1  UNL1        0.0287
     29 H           0.5462   -0.3115    2.5762 H       1  UNL1        0.0287
     30 H           2.8497   -0.0326   -2.1508 H       1  UNL1        0.0329
     31 H           3.8935    0.0419   -0.7332 H       1  UNL1        0.0329
     32 H           2.8223   -0.1953    1.8427 H       1  UNL1        0.0427
     33 H           2.6692   -1.6602    2.7504 H       1  UNL1        0.0427
     34 H          -2.2238    0.6825   -1.2852 H       1  UNL1        0.0817
     35 H           0.6133   -1.8535   -2.8381 H       1  UNL1        0.0574
     36 H          -1.5265   -0.8283   -3.0917 H       1  UNL1        0.0607
     37 H           1.8653   -3.7443    1.0139 H       1  UNL1        0.0391
     38 H           3.4678   -3.6317    1.7568 H       1  UNL1        0.0391
     39 H           3.3360   -3.8938    0.0293 H       1  UNL1        0.0391
     40 H           3.2366    2.6900   -1.2184 H       1  UNL1        0.0622
     41 H           1.6594    4.4368   -0.4670 H       1  UNL1        0.0655
     42 H          -1.5033    3.5854    0.9967 H       1  UNL1        0.2923
     43 H          -3.9580   -2.6389    1.1227 H       1  UNL1        0.0342
     44 H          -5.2670   -2.3739   -0.0805 H       1  UNL1        0.0342
     45 H          -5.3445   -1.6031    1.5176 H       1  UNL1        0.0342
@<TRIPOS>BOND
     1     1     9    1
     2     1    17    1
     3     2    15    1
     4     2    23    1
     5     3    21    1
     6     3    42    1
     7     4    23    2
     8     5     8    1
     9     5    13    1
    10     5    19    1
    11     6     7    1
    12     6     9    1
    13     6    10    1
    14     6    11    1
    15     7     8    1
    16     7    16    1
    17     7    25    1
    18     8    12    1
    19     8    26    1
    20     9    15    1
    21     9    27    1
    22    10    13    1
    23    10    28    1
    24    10    29    1
    25    11    14   ar
    26    11    17   ar
    27    12    14    1
    28    12    30    1
    29    12    31    1
    30    13    32    1
    31    13    33    1
    32    14    20   ar
    33    15    18    1
    34    15    34    1
    35    16    18    2
    36    16    35    1
    37    17    21   ar
    38    18    36    1
    39    19    37    1
    40    19    38    1
    41    19    39    1
    42    20    22   ar
    43    20    40    1
    44    21    22   ar
    45    22    41    1
    46    23    24    1
    47    24    43    1
    48    24    44    1
    49    24    45    1
@<TRIPOS>MOLECULE
273032
 42 46 0 0 0
SMALL
GASTEIGER

@<TRIPOS>ATOM
      1 O           2.0400    0.3608    1.1571 O.3     1  UNL1       -0.4814
      2 O           2.4984    3.1842    0.0829 O.3     1  UNL1       -0.3881
      3 O           3.5801   -2.0365    0.5106 O.3     1  UNL1       -0.5033
      4 N          -3.1095   -0.0358    0.5482 N.3     1  UNL1       -0.3018
      5 C          -0.2933    0.6794    0.6062 C.3     1  UNL1        0.0443
      6 C          -1.2906    1.3006   -0.3763 C.3     1  UNL1       -0.0117
      7 C           1.0440    1.4050    0.8446 C.3     1  UNL1        0.1360
      8 C          -2.3516    0.2062   -0.7039 C.3     1  UNL1        0.0178
      9 C          -1.0457    0.3483    1.9142 C.3     1  UNL1       -0.0266
     10 C           0.2772   -0.5719    0.0404 C.ar    1  UNL1        0.0113
     11 C          -0.6140    1.9215   -1.6028 C.3     1  UNL1       -0.0454
     12 C           1.5696    2.1999   -0.3715 C.3     1  UNL1        0.0928
     13 C          -1.7175   -1.0745   -1.3522 C.3     1  UNL1       -0.0113
     14 C           0.4666    2.9042   -1.1560 C.3     1  UNL1       -0.0230
     15 C          -2.2938   -0.5200    1.6674 C.3     1  UNL1       -0.0002
     16 C          -0.3616   -1.4480   -0.8147 C.ar    1  UNL1       -0.0383
     17 C           1.5849   -0.7308    0.4534 C.ar    1  UNL1        0.1663
     18 C          -4.2988   -0.8596    0.3592 C.3     1  UNL1       -0.0125
     19 C           0.3507   -2.5860   -1.1928 C.ar    1  UNL1       -0.0546
     20 C           2.3000   -1.8535    0.1055 C.ar    1  UNL1        0.1588
     21 C           1.6649   -2.7934   -0.7196 C.ar    1  UNL1       -0.0162
     22 H          -1.8027    2.1346    0.1292 H       1  UNL1        0.0326
     23 H           0.9864    2.0627    1.7208 H       1  UNL1        0.0768
     24 H          -3.0566    0.6315   -1.4308 H       1  UNL1        0.0469
     25 H          -1.3572    1.2875    2.3909 H       1  UNL1        0.0287
     26 H          -0.3961   -0.1643    2.6355 H       1  UNL1        0.0287
     27 H          -1.3625    2.4517   -2.2033 H       1  UNL1        0.0270
     28 H          -0.1710    1.1597   -2.2538 H       1  UNL1        0.0270
     29 H           2.1288    1.5413   -1.0472 H       1  UNL1        0.0630
     30 H          -1.5937   -0.8729   -2.4247 H       1  UNL1        0.0329
     31 H          -2.3918   -1.9333   -1.2780 H       1  UNL1        0.0329
     32 H           0.8996    3.3998   -2.0335 H       1  UNL1        0.0291
     33 H           0.0271    3.7068   -0.5497 H       1  UNL1        0.0291
     34 H          -1.9928   -1.5629    1.5078 H       1  UNL1        0.0427
     35 H          -2.8924   -0.5117    2.5870 H       1  UNL1        0.0427
     36 H          -4.0617   -1.9077    0.1506 H       1  UNL1        0.0391
     37 H          -4.9160   -0.4732   -0.4592 H       1  UNL1        0.0391
     38 H          -4.9241   -0.8318    1.2588 H       1  UNL1        0.0391
     39 H          -0.0937   -3.3136   -1.8666 H       1  UNL1        0.0622
     40 H           2.8369    3.6528   -0.6991 H       1  UNL1        0.2099
     41 H           2.1947   -3.6905   -1.0326 H       1  UNL1        0.0655
     42 H           3.9049   -2.8806    0.1527 H       1  UNL1        0.2923
@<TRIPOS>BOND
     1     1     7    1
     2     1    17    1
     3     2    12    1
     4     2    40    1
     5     3    20    1
     6     3    42    1
     7     4     8    1
     8     4    15    1
     9     4    18    1
    10     5     6    1
    11     5     7    1
    12     5     9    1
    13     5    10    1
    14     6     8    1
    15     6    11    1
    16     6    22    1
    17     7    12    1
    18     7    23    1
    19     8    13    1
    20     8    24    1
    21     9    15    1
    22     9    25    1
    23     9    26    1
    24    10    16   ar
    25    10    17   ar
    26    11    14    1
    27    11    27    1
    28    11    28    1
    29    12    14    1
    30    12    29    1
    31    13    16    1
    32    13    30    1
    33    13    31    1
    34    14    32    1
    35    14    33    1
    36    15    34    1
    37    15    35    1
    38    16    19   ar
    39    17    20   ar
    40    18    36    1
    41    18    37    1
    42    18    38    1
    43    19    21   ar
    44    19    39    1
    45    20    21   ar
    46    21    41    1
@<TRIPOS>MOLECULE
5462306
 41 45 0 0 0
SMALL
GASTEIGER

@<TRIPOS>ATOM
      1 O          -1.9598   -0.2545   -1.0613 O.3     1  UNL1       -0.4760
      2 O          -3.0432    2.3187   -0.2679 O.2     1  UNL1       -0.4956
      3 O          -2.9010   -2.9331   -0.4612 O.3     1  UNL1       -0.5033
      4 N           3.2078    0.8117   -0.3319 N.3     1  UNL1       -0.2984
      5 C           0.3201    0.5432   -0.6233 C.3     1  UNL1        0.0673
      6 C           0.9792    1.2420    0.5368 C.2     1  UNL1       -0.0375
      7 C           2.3299    0.6096    0.8445 C.3     1  UNL1        0.0366
      8 C          -1.1293    0.9522   -0.9960 C.3     1  UNL1        0.1701
      9 C           1.2541    0.5837   -1.8517 C.3     1  UNL1       -0.0227
     10 C           0.0568   -0.8387   -0.1492 C.ar    1  UNL1        0.0154
     11 C           2.1229   -0.9015    1.2598 C.3     1  UNL1       -0.0078
     12 C           2.6994    0.1552   -1.5425 C.3     1  UNL1        0.0004
     13 C           0.8970   -1.5749    0.6745 C.ar    1  UNL1       -0.0377
     14 C          -1.2157   -1.2449   -0.4764 C.ar    1  UNL1        0.1671
     15 C          -1.7276    1.9660   -0.0439 C.2     1  UNL1        0.1388
     16 C           0.3460    2.1898    1.2420 C.2     1  UNL1       -0.0568
     17 C          -1.0263    2.5425    0.9468 C.2     1  UNL1       -0.0204
     18 C           0.4708   -2.8543    1.0304 C.ar    1  UNL1       -0.0545
     19 C           4.6010    0.4590   -0.0782 C.3     1  UNL1       -0.0122
     20 C          -1.6574   -2.5040   -0.1326 C.ar    1  UNL1        0.1588
     21 C          -0.7905   -3.3218    0.6073 C.ar    1  UNL1       -0.0162
     22 C          -3.8344    2.0541    0.8738 C.3     1  UNL1        0.0785
     23 H           2.7848    1.1347    1.6951 H       1  UNL1        0.0512
     24 H          -1.1581    1.3948   -2.0005 H       1  UNL1        0.0828
     25 H           1.2772    1.6102   -2.2440 H       1  UNL1        0.0290
     26 H           0.8654   -0.0512   -2.6586 H       1  UNL1        0.0290
     27 H           2.0005   -0.9164    2.3519 H       1  UNL1        0.0332
     28 H           3.0080   -1.5070    1.0408 H       1  UNL1        0.0332
     29 H           2.7561   -0.9369   -1.4577 H       1  UNL1        0.0427
     30 H           3.3227    0.4318   -2.4020 H       1  UNL1        0.0427
     31 H           0.8109    2.6539    2.1049 H       1  UNL1        0.0619
     32 H          -1.4668    3.2969    1.5909 H       1  UNL1        0.0652
     33 H           1.0862   -3.4823    1.6689 H       1  UNL1        0.0622
     34 H           5.2308    0.7850   -0.9137 H       1  UNL1        0.0391
     35 H           4.7531   -0.6167    0.0545 H       1  UNL1        0.0391
     36 H           4.9767    0.9745    0.8125 H       1  UNL1        0.0391
     37 H          -1.1105   -4.3176    0.9059 H       1  UNL1        0.0655
     38 H          -3.3477   -2.2253   -0.9576 H       1  UNL1        0.2923
     39 H          -4.8852    2.0990    0.5700 H       1  UNL1        0.0660
     40 H          -3.6893    2.8130    1.6495 H       1  UNL1        0.0660
     41 H          -3.6520    1.0513    1.2783 H       1  UNL1        0.0660
@<TRIPOS>BOND
     1     1     8    1
     2     1    14    1
     3     2    15    1
     4     2    22    1
     5     3    20    1
     6     3    38    1
     7     4     7    1
     8     4    12    1
     9     4    19    1
    10     5     6    1
    11     5     8    1
    12     5     9    1
    13     5    10    1
    14     6     7    1
    15     6    16    2
    16     7    11    1
    17     7    23    1
    18     8    15    1
    19     8    24    1
    20     9    12    1
    21     9    25    1
    22     9    26    1
    23    10    13   ar
    24    10    14   ar
    25    11    13    1
    26    11    27    1
    27    11    28    1
    28    12    29    1
    29    12    30    1
    30    13    18   ar
    31    14    20   ar
    32    15    17    2
    33    16    17    1
    34    16    31    1
    35    17    32    1
    36    18    21   ar
    37    18    33    1
    38    19    34    1
    39    19    35    1
    40    19    36    1
    41    20    21   ar
    42    21    37    1
    43    22    39    1
    44    22    40    1
    45    22    41    1
@<TRIPOS>MOLECULE
5492873
 41 45 0 0 0
SMALL
GASTEIGER

@<TRIPOS>ATOM
      1 O           2.0051    0.6269    1.2135 O.3     1  UNL1       -0.4810
      2 O          -2.1688    2.1035    0.0747 O.3     1  UNL1       -0.3820
      3 O           2.5575    2.7385   -0.2212 O.3     1  UNL1       -0.3841
      4 O           3.9147   -1.4694    0.5831 O.3     1  UNL1       -0.5033
      5 N          -3.0466   -0.5109    0.4460 N.3     1  UNL1       -0.2990
      6 C          -0.3642    0.5752    0.6538 C.3     1  UNL1        0.0740
      7 C          -1.3464    1.0452   -0.4355 C.3     1  UNL1        0.1131
      8 C          -2.2542   -0.1905   -0.7695 C.3     1  UNL1        0.0474
      9 C           0.8388    1.4928    0.9802 C.3     1  UNL1        0.1423
     10 C          -1.1342    0.1381    1.9184 C.3     1  UNL1       -0.0239
     11 C           0.4124   -0.5834    0.1153 C.ar    1  UNL1        0.0141
     12 C          -1.4330   -1.3952   -1.3457 C.3     1  UNL1       -0.0086
     13 C          -2.2383   -0.8872    1.6096 C.3     1  UNL1        0.0000
     14 C          -0.0556   -1.5498   -0.7575 C.ar    1  UNL1       -0.0381
     15 C           1.1487    2.5526   -0.1100 C.3     1  UNL1        0.1111
     16 C          -0.6088    1.6241   -1.6193 C.2     1  UNL1       -0.0518
     17 C           1.7267   -0.5206    0.5207 C.ar    1  UNL1        0.1664
     18 C           0.5451    2.2917   -1.4652 C.2     1  UNL1       -0.0535
     19 C          -4.1189   -1.4711    0.2073 C.3     1  UNL1       -0.0124
     20 C           0.8365   -2.5572   -1.1282 C.ar    1  UNL1       -0.0546
     21 C           2.6224   -1.5085    0.1755 C.ar    1  UNL1        0.1588
     22 C           2.1611   -2.5451   -0.6463 C.ar    1  UNL1       -0.0162
     23 H          -2.9779    0.1228   -1.5350 H       1  UNL1        0.0497
     24 H           0.6739    2.0265    1.9250 H       1  UNL1        0.0772
     25 H          -1.5903    1.0204    2.3866 H       1  UNL1        0.0288
     26 H          -0.4566   -0.2909    2.6682 H       1  UNL1        0.0288
     27 H          -1.3055   -1.2195   -2.4224 H       1  UNL1        0.0329
     28 H          -1.9806   -2.3380   -1.2519 H       1  UNL1        0.0329
     29 H          -1.7940   -1.8809    1.4722 H       1  UNL1        0.0427
     30 H          -2.8816   -0.9603    2.4954 H       1  UNL1        0.0427
     31 H           0.7371    3.5121    0.2294 H       1  UNL1        0.0675
     32 H          -1.0441    1.5278   -2.6093 H       1  UNL1        0.0599
     33 H           1.0198    2.7296   -2.3386 H       1  UNL1        0.0596
     34 H          -1.5923    2.7853    0.4592 H       1  UNL1        0.2107
     35 H          -3.7505   -2.4855    0.0254 H       1  UNL1        0.0391
     36 H          -4.7339   -1.1664   -0.6465 H       1  UNL1        0.0391
     37 H          -4.7895   -1.5105    1.0732 H       1  UNL1        0.0391
     38 H           0.5249   -3.3433   -1.8109 H       1  UNL1        0.0622
     39 H           2.8360   -3.3402   -0.9551 H       1  UNL1        0.0655
     40 H           2.7157    3.4549   -0.8596 H       1  UNL1        0.2104
     41 H           4.3796   -2.2468    0.2286 H       1  UNL1        0.2923
@<TRIPOS>BOND
     1     1     9    1
     2     1    17    1
     3     2     7    1
     4     2    34    1
     5     3    15    1
     6     3    40    1
     7     4    21    1
     8     4    41    1
     9     5     8    1
    10     5    13    1
    11     5    19    1
    12     6     7    1
    13     6     9    1
    14     6    10    1
    15     6    11    1
    16     7     8    1
    17     7    16    1
    18     8    12    1
    19     8    23    1
    20     9    15    1
    21     9    24    1
    22    10    13    1
    23    10    25    1
    24    10    26    1
    25    11    14   ar
    26    11    17   ar
    27    12    14    1
    28    12    27    1
    29    12    28    1
    30    13    29    1
    31    13    30    1
    32    14    20   ar
    33    15    18    1
    34    15    31    1
    35    16    18    2
    36    16    32    1
    37    17    21   ar
    38    18    33    1
    39    19    35    1
    40    19    36    1
    41    19    37    1
    42    20    22   ar
    43    20    38    1
    44    21    22   ar
    45    22    39    1
@<TRIPOS>MOLECULE
346222
 48 52 0 0 0
SMALL
GASTEIGER

@<TRIPOS>ATOM
      1 O           0.0098   -2.0577   -1.1698 O.3     1  UNL1       -0.4814
      2 O          -3.2186   -0.5553   -0.3712 O.3     1  UNL1       -0.3731
      3 O           2.2910   -3.7229   -0.5009 O.3     1  UNL1       -0.5033
      4 N           0.5079    3.1384   -0.4272 N.3     1  UNL1       -0.3018
      5 C          -0.1639    0.3240   -0.6734 C.3     1  UNL1        0.0443
      6 C          -0.7551    1.2199    0.4202 C.3     1  UNL1       -0.0117
      7 C          -0.9470   -0.9511   -1.0492 C.3     1  UNL1        0.1363
      8 C           0.3346    2.2860    0.7726 C.3     1  UNL1        0.0178
      9 C           0.1726    1.1749   -1.9171 C.3     1  UNL1       -0.0266
     10 C           1.0620   -0.3150   -0.1288 C.ar    1  UNL1        0.0113
     11 C          -1.2778    0.4550    1.6552 C.3     1  UNL1       -0.0454
     12 C          -2.0520   -1.3103   -0.0426 C.3     1  UNL1        0.0963
     13 C           1.6644    1.6347    1.3010 C.3     1  UNL1       -0.0113
     14 C          -1.6596   -1.0102    1.4037 C.3     1  UNL1       -0.0228
     15 C           1.0213    2.4130   -1.5921 C.3     1  UNL1       -0.0002
     16 C           1.9680    0.2694    0.7382 C.ar    1  UNL1       -0.0383
     17 C           1.1293   -1.6389   -0.5004 C.ar    1  UNL1        0.1663
     18 C           1.2777    4.3512   -0.1709 C.3     1  UNL1       -0.0125
     19 C           3.0609   -0.5052    1.1291 C.ar    1  UNL1       -0.0546
     20 C           2.2009   -2.4212   -0.1293 C.ar    1  UNL1        0.1588
     21 C           3.1844   -1.8359    0.6795 C.ar    1  UNL1       -0.0162
     22 C          -4.3048   -0.8903    0.4778 C.3     1  UNL1        0.0454
     23 C          -5.5061   -0.0524    0.0956 C.3     1  UNL1       -0.0416
     24 H          -1.6274    1.7427   -0.0014 H       1  UNL1        0.0326
     25 H          -1.4070   -0.8373   -2.0395 H       1  UNL1        0.0768
     26 H          -0.0685    2.9239    1.5706 H       1  UNL1        0.0469
     27 H          -0.7674    1.5101   -2.3767 H       1  UNL1        0.0287
     28 H           0.6951    0.5781   -2.6761 H       1  UNL1        0.0287
     29 H          -2.1616    0.9897    2.0277 H       1  UNL1        0.0270
     30 H          -0.5611    0.4863    2.4837 H       1  UNL1        0.0270
     31 H          -2.2838   -2.3789   -0.1404 H       1  UNL1        0.0633
     32 H           1.5625    1.5205    2.3885 H       1  UNL1        0.0329
     33 H           2.5257    2.2917    1.1449 H       1  UNL1        0.0329
     34 H          -0.7828   -1.6269    1.6430 H       1  UNL1        0.0291
     35 H          -2.3958   -1.3352    2.1440 H       1  UNL1        0.0291
     36 H           2.0685    2.1206   -1.4466 H       1  UNL1        0.0427
     37 H           1.0056    3.0691   -2.4716 H       1  UNL1        0.0427
     38 H           1.2130    5.0277   -1.0306 H       1  UNL1        0.0391
     39 H           2.3374    4.1537    0.0183 H       1  UNL1        0.0391
     40 H           0.8689    4.8992    0.6851 H       1  UNL1        0.0391
     41 H           3.8081   -0.0998    1.8060 H       1  UNL1        0.0622
     42 H           4.0424   -2.4192    1.0059 H       1  UNL1        0.0655
     43 H          -4.5463   -1.9545    0.3808 H       1  UNL1        0.0557
     44 H          -4.1078   -0.6542    1.5248 H       1  UNL1        0.0557
     45 H           3.1096   -4.0979   -0.1330 H       1  UNL1        0.2923
     46 H          -6.3658   -0.2861    0.7299 H       1  UNL1        0.0252
     47 H          -5.2781    1.0148    0.1884 H       1  UNL1        0.0252
     48 H          -5.7814   -0.2287   -0.9495 H       1  UNL1        0.0252
@<TRIPOS>BOND
     1     1     7    1
     2     1    17    1
     3     2    12    1
     4     2    22    1
     5     3    20    1
     6     3    45    1
     7     4     8    1
     8     4    15    1
     9     4    18    1
    10     5     6    1
    11     5     7    1
    12     5     9    1
    13     5    10    1
    14     6     8    1
    15     6    11    1
    16     6    24    1
    17     7    12    1
    18     7    25    1
    19     8    13    1
    20     8    26    1
    21     9    15    1
    22     9    27    1
    23     9    28    1
    24    10    16   ar
    25    10    17   ar
    26    11    14    1
    27    11    29    1
    28    11    30    1
    29    12    14    1
    30    12    31    1
    31    13    16    1
    32    13    32    1
    33    13    33    1
    34    14    34    1
    35    14    35    1
    36    15    36    1
    37    15    37    1
    38    16    19   ar
    39    17    20   ar
    40    18    38    1
    41    18    39    1
    42    18    40    1
    43    19    21   ar
    44    19    41    1
    45    20    21   ar
    46    21    42    1
    47    22    23    1
    48    22    43    1
    49    22    44    1
    50    23    46    1
    51    23    47    1
    52    23    48    1
@<TRIPOS>MOLECULE
5362518
 42 46 0 0 0
SMALL
GASTEIGER

@<TRIPOS>ATOM
      1 O          -1.8565    0.7569   -1.1787 O.3     1  UNL1       -0.4797
      2 O          -3.8972   -1.2559   -0.6455 O.3     1  UNL1       -0.5033
      3 N           3.1037   -0.7955   -0.3586 N.3     1  UNL1       -0.3018
      4 C           0.4822    0.5385   -0.5741 C.3     1  UNL1        0.0460
      5 C           1.4807    0.9186    0.5194 C.3     1  UNL1       -0.0082
      6 C           2.3197   -0.3610    0.8266 C.3     1  UNL1        0.0181
      7 C          -0.6493    1.5436   -0.8750 C.3     1  UNL1        0.1312
      8 C           1.2567    0.1178   -1.8411 C.3     1  UNL1       -0.0264
      9 C          -0.3621   -0.5850   -0.0882 C.ar    1  UNL1        0.0115
     10 C           0.8095    1.5301    1.7623 C.3     1  UNL1       -0.0292
     11 C           1.4349   -1.5593    1.3320 C.3     1  UNL1       -0.0113
     12 C           2.2841   -0.9926   -1.5635 C.3     1  UNL1       -0.0002
     13 C           0.0463   -1.6094    0.7466 C.ar    1  UNL1       -0.0383
     14 C          -0.9537    2.5157    0.2526 C.2     1  UNL1       -0.0358
     15 C          -1.6630   -0.4304   -0.5163 C.ar    1  UNL1        0.1667
     16 C          -0.2919    2.4934    1.4238 C.2     1  UNL1       -0.0812
     17 C           4.2428    0.0818   -0.6265 C.3     1  UNL1       -0.0125
     18 C          -0.9060   -2.5768    1.0663 C.ar    1  UNL1       -0.0546
     19 C          -2.6159   -1.3786   -0.2209 C.ar    1  UNL1        0.1588
     20 C          -2.0423    3.5172   -0.0102 C.3     1  UNL1       -0.0403
     21 C          -2.2226   -2.4689    0.5691 C.ar    1  UNL1       -0.0162
     22 H           2.1411    1.7038    0.1259 H       1  UNL1        0.0329
     23 H           3.0298   -0.1429    1.6355 H       1  UNL1        0.0469
     24 H          -0.4094    2.1289   -1.7719 H       1  UNL1        0.0790
     25 H           1.7798    0.9937   -2.2468 H       1  UNL1        0.0287
     26 H           0.5721   -0.2263   -2.6272 H       1  UNL1        0.0287
     27 H           1.5763    2.0608    2.3403 H       1  UNL1        0.0311
     28 H           0.3995    0.7664    2.4315 H       1  UNL1        0.0311
     29 H           1.3276   -1.4586    2.4201 H       1  UNL1        0.0329
     30 H           1.9466   -2.5139    1.1562 H       1  UNL1        0.0329
     31 H           1.7583   -1.9506   -1.4686 H       1  UNL1        0.0427
     32 H           2.9225   -1.1243   -2.4467 H       1  UNL1        0.0427
     33 H          -0.5643    3.1979    2.2060 H       1  UNL1        0.0573
     34 H           4.8655    0.1943    0.2679 H       1  UNL1        0.0391
     35 H           3.9493    1.0784   -0.9701 H       1  UNL1        0.0391
     36 H           4.8877   -0.3608   -1.3943 H       1  UNL1        0.0391
     37 H          -0.6485   -3.4079    1.7172 H       1  UNL1        0.0622
     38 H          -2.1771    4.2101    0.8271 H       1  UNL1        0.0276
     39 H          -2.9980    3.0106   -0.1781 H       1  UNL1        0.0276
     40 H          -1.8029    4.1126   -0.8972 H       1  UNL1        0.0276
     41 H          -2.9495   -3.2333    0.8348 H       1  UNL1        0.0655
     42 H          -3.9703   -0.4360   -1.1645 H       1  UNL1        0.2923
@<TRIPOS>BOND
     1     1     7    1
     2     1    15    1
     3     2    19    1
     4     2    42    1
     5     3     6    1
     6     3    12    1
     7     3    17    1
     8     4     5    1
     9     4     7    1
    10     4     8    1
    11     4     9    1
    12     5     6    1
    13     5    10    1
    14     5    22    1
    15     6    11    1
    16     6    23    1
    17     7    14    1
    18     7    24    1
    19     8    12    1
    20     8    25    1
    21     8    26    1
    22     9    13   ar
    23     9    15   ar
    24    10    16    1
    25    10    27    1
    26    10    28    1
    27    11    13    1
    28    11    29    1
    29    11    30    1
    30    12    31    1
    31    12    32    1
    32    13    18   ar
    33    14    16    2
    34    14    20    1
    35    15    19   ar
    36    16    33    1
    37    17    34    1
    38    17    35    1
    39    17    36    1
    40    18    21   ar
    41    18    37    1
    42    19    21   ar
    43    20    38    1
    44    20    39    1
    45    20    40    1
    46    21    41    1
@<TRIPOS>MOLECULE
5459823
 38 42 0 0 0
SMALL
GASTEIGER

@<TRIPOS>ATOM
      1 O           1.9702    0.4143    1.2692 O.3     1  UNL1       -0.4761
      2 O           2.6247    2.7402   -0.1555 O.2     1  UNL1       -0.2887
      3 O           3.5992   -1.9058    0.5558 O.3     1  UNL1       -0.5033
      4 N          -3.1496   -0.0663    0.4839 N.3     1  UNL1       -0.3015
      5 C          -0.3565    0.6904    0.6822 C.3     1  UNL1        0.0525
      6 C          -1.3198    1.3448   -0.3098 C.3     1  UNL1        0.0070
      7 C          -2.3472    0.2424   -0.7256 C.3     1  UNL1        0.0213
      8 C          -1.1484    0.2957    1.9453 C.3     1  UNL1       -0.0260
      9 C           0.9519    1.4275    0.9832 C.3     1  UNL1        0.1719
     10 C           0.2608   -0.5248    0.0815 C.ar    1  UNL1        0.0119
     11 C          -1.6669   -0.9965   -1.4080 C.3     1  UNL1       -0.0110
     12 C          -2.3691   -0.5827    1.6139 C.3     1  UNL1       -0.0001
     13 C          -0.3253   -1.3702   -0.8387 C.ar    1  UNL1       -0.0383
     14 C          -0.6123    2.0235   -1.4490 C.2     1  UNL1       -0.0750
     15 C           1.5645   -0.6622    0.5142 C.ar    1  UNL1        0.1668
     16 C           1.4934    2.2550   -0.1847 C.2     1  UNL1        0.1969
     17 C           0.6541    2.4521   -1.3952 C.2     1  UNL1       -0.0190
     18 C          -4.3129   -0.9041    0.2126 C.3     1  UNL1       -0.0124
     19 C           0.4298   -2.4676   -1.2524 C.ar    1  UNL1       -0.0546
     20 C           2.3227   -1.7442    0.1309 C.ar    1  UNL1        0.1588
     21 C           1.7366   -2.6614   -0.7536 C.ar    1  UNL1       -0.0162
     22 H          -1.8727    2.1517    0.1959 H       1  UNL1        0.0368
     23 H          -3.0345    0.6836   -1.4606 H       1  UNL1        0.0472
     24 H          -1.4945    1.2090    2.4477 H       1  UNL1        0.0288
     25 H          -0.5160   -0.2355    2.6684 H       1  UNL1        0.0288
     26 H           0.8570    2.0923    1.8494 H       1  UNL1        0.0827
     27 H          -1.5067   -0.7414   -2.4643 H       1  UNL1        0.0329
     28 H          -2.3274   -1.8691   -1.3991 H       1  UNL1        0.0329
     29 H          -2.0420   -1.6124    1.4228 H       1  UNL1        0.0427
     30 H          -3.0032   -0.6239    2.5085 H       1  UNL1        0.0427
     31 H          -1.1881    2.2245   -2.3487 H       1  UNL1        0.0577
     32 H           1.1028    2.9688   -2.2363 H       1  UNL1        0.0650
     33 H          -4.0458   -1.9375   -0.0298 H       1  UNL1        0.0391
     34 H          -4.9052   -0.4952   -0.6133 H       1  UNL1        0.0391
     35 H          -4.9739   -0.9266    1.0864 H       1  UNL1        0.0391
     36 H           0.0267   -3.1703   -1.9767 H       1  UNL1        0.0622
     37 H           2.3014   -3.5256   -1.0969 H       1  UNL1        0.0655
     38 H           3.9588   -2.7211    0.1658 H       1  UNL1        0.2923
@<TRIPOS>BOND
     1     1     9    1
     2     1    15    1
     3     2    16    2
     4     3    20    1
     5     3    38    1
     6     4     7    1
     7     4    12    1
     8     4    18    1
     9     5     6    1
    10     5     8    1
    11     5     9    1
    12     5    10    1
    13     6     7    1
    14     6    14    1
    15     6    22    1
    16     7    11    1
    17     7    23    1
    18     8    12    1
    19     8    24    1
    20     8    25    1
    21     9    16    1
    22     9    26    1
    23    10    13   ar
    24    10    15   ar
    25    11    13    1
    26    11    27    1
    27    11    28    1
    28    12    29    1
    29    12    30    1
    30    13    19   ar
    31    14    17    2
    32    14    31    1
    33    15    20   ar
    34    16    17    1
    35    17    32    1
    36    18    33    1
    37    18    34    1
    38    18    35    1
    39    19    21   ar
    40    19    36    1
    41    20    21   ar
    42    21    37    1
@<TRIPOS>MOLECULE
5745390
 54 59 0 0 0
SMALL
GASTEIGER

@<TRIPOS>ATOM
      1 O           0.0801    0.4000    1.0584 O.3     1  UNL1       -0.4810
      2 O          -0.9938   -1.9798    1.0059 O.3     1  UNL1       -0.3841
      3 O          -1.2096    2.0893   -0.9199 O.3     1  UNL1       -0.4455
      4 O          -3.5079    2.1210    2.4490 O.co2   1  UNL1       -0.5759
      5 O          -1.8559    2.9831    1.2884 O.2     1  UNL1        0.0416
      6 O          -5.5036   -2.4738   -1.2164 O.co2   1  UNL1       -0.5760
      7 O          -6.0059   -1.6133    0.7397 O.2     1  UNL1        0.0414
      8 N           5.2620   -0.2643    0.5828 N.3     1  UNL1       -0.3015
      9 N          -2.7787    2.1461    1.4295 N.pl3   1  UNL1        0.0837
     10 N          -5.3086   -1.6359   -0.3031 N.pl3   1  UNL1        0.0798
     11 C           2.3838   -0.3819    0.9415 C.3     1  UNL1        0.0480
     12 C           3.2093   -1.5892    0.4711 C.3     1  UNL1        0.0064
     13 C           4.4052   -1.0224   -0.3609 C.3     1  UNL1        0.0213
     14 C           0.9836   -0.6564    1.5383 C.3     1  UNL1        0.1399
     15 C           3.2547    0.5106    1.8477 C.3     1  UNL1       -0.0263
     16 C           1.9414    0.3835   -0.2617 C.ar    1  UNL1        0.0116
     17 C           3.9379   -0.2159   -1.6212 C.3     1  UNL1       -0.0110
     18 C           4.5957    0.8884    1.1972 C.3     1  UNL1       -0.0001
     19 C           2.6489    0.5398   -1.4400 C.ar    1  UNL1       -0.0383
     20 C           0.4135   -2.0626    1.2168 C.3     1  UNL1        0.1110
     21 C           2.3558   -2.5946   -0.2590 C.2     1  UNL1       -0.0799
     22 C           0.6544    0.8453   -0.1014 C.ar    1  UNL1        0.1672
     23 C           1.0719   -2.7913    0.0756 C.2     1  UNL1       -0.0559
     24 C           6.5575    0.1055    0.0222 C.3     1  UNL1       -0.0124
     25 C           2.0543    1.3076   -2.4426 C.ar    1  UNL1       -0.0545
     26 C           0.0502    1.6125   -1.0729 C.ar    1  UNL1        0.1705
     27 C           0.7707    1.8565   -2.2491 C.ar    1  UNL1       -0.0154
     28 C          -2.2350    1.1705   -0.7492 C.ar    1  UNL1        0.2056
     29 C          -3.0056    1.1929    0.3987 C.ar    1  UNL1        0.3212
     30 C          -2.4532    0.2447   -1.7538 C.ar    1  UNL1       -0.0061
     31 C          -4.0298    0.2579    0.5475 C.ar    1  UNL1        0.0964
     32 C          -3.4776   -0.6902   -1.6049 C.ar    1  UNL1        0.0195
     33 C          -4.2658   -0.6837   -0.4543 C.ar    1  UNL1        0.2799
     34 H           3.6194   -2.1213    1.3429 H       1  UNL1        0.0368
     35 H           4.9983   -1.8757   -0.7181 H       1  UNL1        0.0472
     36 H           1.0028   -0.5508    2.6307 H       1  UNL1        0.0772
     37 H           3.4582   -0.0297    2.7823 H       1  UNL1        0.0287
     38 H           2.7259    1.4307    2.1283 H       1  UNL1        0.0287
     39 H           3.7736   -0.9410   -2.4298 H       1  UNL1        0.0329
     40 H           4.7173    0.4662   -1.9748 H       1  UNL1        0.0329
     41 H           4.4405    1.6890    0.4633 H       1  UNL1        0.0427
     42 H           5.2387    1.3105    1.9797 H       1  UNL1        0.0427
     43 H           0.5570   -2.7000    2.0991 H       1  UNL1        0.0675
     44 H           2.8045   -3.1981   -1.0419 H       1  UNL1        0.0573
     45 H           0.5025   -3.5568   -0.4437 H       1  UNL1        0.0596
     46 H           7.2171    0.4813    0.8126 H       1  UNL1        0.0391
     47 H           7.0592   -0.7668   -0.4107 H       1  UNL1        0.0391
     48 H           6.4841    0.8807   -0.7469 H       1  UNL1        0.0391
     49 H           2.5639    1.4651   -3.3894 H       1  UNL1        0.0622
     50 H           0.3235    2.4466   -3.0457 H       1  UNL1        0.0655
     51 H          -1.3768   -1.5101    1.7664 H       1  UNL1        0.2104
     52 H          -1.8553    0.2340   -2.6602 H       1  UNL1        0.0659
     53 H          -4.6457    0.2602    1.4439 H       1  UNL1        0.0755
     54 H          -3.6337   -1.4074   -2.4067 H       1  UNL1        0.0686
@<TRIPOS>UNITY_ATOM_ATTR
4 1
charge -1
6 1
charge -1
9 1
charge 1
10 1
charge 1
@<TRIPOS>BOND
     1     1    14    1
     2     1    22    1
     3     2    20    1
     4     2    51    1
     5     3    26    1
     6     3    28    1
     7     4     9    1
     8     5     9    2
     9     6    10    1
    10     7    10    2
    11     8    13    1
    12     8    18    1
    13     8    24    1
    14     9    29    1
    15    10    33    1
    16    11    12    1
    17    11    14    1
    18    11    15    1
    19    11    16    1
    20    12    13    1
    21    12    21    1
    22    12    34    1
    23    13    17    1
    24    13    35    1
    25    14    20    1
    26    14    36    1
    27    15    18    1
    28    15    37    1
    29    15    38    1
    30    16    19   ar
    31    16    22   ar
    32    17    19    1
    33    17    39    1
    34    17    40    1
    35    18    41    1
    36    18    42    1
    37    19    25   ar
    38    20    23    1
    39    20    43    1
    40    21    23    2
    41    21    44    1
    42    22    26   ar
    43    23    45    1
    44    24    46    1
    45    24    47    1
    46    24    48    1
    47    25    27   ar
    48    25    49    1
    49    26    27   ar
    50    27    50    1
    51    28    29   ar
    52    28    30   ar
    53    29    31   ar
    54    30    32   ar
    55    30    52    1
    56    31    33   ar
    57    31    53    1
    58    32    33   ar
    59    32    54    1
@<TRIPOS>MOLECULE
9868916
 60 65 0 0 0
SMALL
GASTEIGER

@<TRIPOS>ATOM
      1 O           0.6167   -1.2469   -0.7182 O.3     1  UNL1       -0.4811
      2 O          -1.1804   -0.1274    0.8101 O.3     1  UNL1       -0.3377
      3 O           1.2040   -3.9135    0.2696 O.3     1  UNL1       -0.5033
      4 O          -3.2661    0.8879    0.5616 O.3     1  UNL1       -0.3315
      5 O          -2.0881   -2.3243   -0.7178 O.3     1  UNL1       -0.3841
      6 O          -5.0097   -2.6584   -0.5589 O.3     1  UNL1       -0.3864
      7 O          -6.3253   -0.1375   -1.1612 O.3     1  UNL1       -0.3860
      8 O          -6.3787    2.3558   -0.1336 O.3     1  UNL1       -0.4788
      9 O          -4.8809    2.5903    1.5686 O.2     1  UNL1       -0.2480
     10 N           4.6440    2.1004   -1.0253 N.3     1  UNL1       -0.3015
     11 C           2.1641    0.6333   -0.6734 C.3     1  UNL1        0.0480
     12 C           2.5357    1.8496    0.1886 C.3     1  UNL1        0.0064
     13 C           0.6743    0.2223   -0.7334 C.3     1  UNL1        0.1402
     14 C           4.0928    1.8460    0.3277 C.3     1  UNL1        0.0213
     15 C           2.7988    0.7838   -2.0700 C.3     1  UNL1       -0.0263
     16 C           2.6832   -0.5955   -0.0024 C.ar    1  UNL1        0.0116
     17 C           4.6353    0.5533    1.0286 C.3     1  UNL1       -0.0110
     18 C           4.3092    1.0658   -2.0088 C.3     1  UNL1       -0.0001
     19 C          -0.2033    0.8239    0.3953 C.3     1  UNL1        0.1175
     20 C           3.8468   -0.6955    0.7390 C.ar    1  UNL1       -0.0383
     21 C           1.7875    1.8519    1.4971 C.2     1  UNL1       -0.0799
     22 C           1.7853   -1.6324   -0.1189 C.ar    1  UNL1        0.1663
     23 C           0.5417    1.3629    1.5875 C.2     1  UNL1       -0.0556
     24 C           6.0738    2.3921   -1.0245 C.3     1  UNL1       -0.0124
     25 C           4.1546   -1.9472    1.2747 C.ar    1  UNL1       -0.0546
     26 C           2.0710   -2.8788    0.3936 C.ar    1  UNL1        0.1588
     27 C           3.2797   -3.0355    1.0839 C.ar    1  UNL1       -0.0162
     28 C          -2.3542   -0.0538    0.0018 C.3     1  UNL1        0.1893
     29 C          -2.9859   -1.4455   -0.0401 C.3     1  UNL1        0.1342
     30 C          -4.3258   -1.4235   -0.7762 C.3     1  UNL1        0.1145
     31 C          -5.2212   -0.2916   -0.2710 C.3     1  UNL1        0.1201
     32 C          -4.4513    1.0219   -0.2145 C.3     1  UNL1        0.1859
     33 C          -5.2275    2.0661    0.5205 C.2     1  UNL1        0.3367
     34 H           2.2394    2.7754   -0.3277 H       1  UNL1        0.0368
     35 H           0.2344    0.5228   -1.6932 H       1  UNL1        0.0772
     36 H           4.3745    2.7030    0.9553 H       1  UNL1        0.0472
     37 H           2.3076    1.6165   -2.5915 H       1  UNL1        0.0287
     38 H           2.6305   -0.1109   -2.6833 H       1  UNL1        0.0287
     39 H           4.5808    0.7227    2.1126 H       1  UNL1        0.0329
     40 H           5.6914    0.3829    0.7978 H       1  UNL1        0.0329
     41 H           4.8529    0.1359   -1.8007 H       1  UNL1        0.0427
     42 H           4.6284    1.3905   -3.0072 H       1  UNL1        0.0427
     43 H          -0.7116    1.7124   -0.0099 H       1  UNL1        0.0679
     44 H           2.2534    2.2973    2.3706 H       1  UNL1        0.0573
     45 H           0.0179    1.4249    2.5371 H       1  UNL1        0.0596
     46 H           6.6878    1.5168   -0.7905 H       1  UNL1        0.0391
     47 H           6.3104    3.1845   -0.3061 H       1  UNL1        0.0391
     48 H           6.3836    2.7634   -2.0080 H       1  UNL1        0.0391
     49 H           5.0562   -2.0855    1.8654 H       1  UNL1        0.0622
     50 H           3.5362   -4.0006    1.5147 H       1  UNL1        0.0655
     51 H          -2.0911    0.2529   -1.0204 H       1  UNL1        0.0938
     52 H          -3.1150   -1.8433    0.9735 H       1  UNL1        0.0671
     53 H          -4.1673   -1.3420   -1.8589 H       1  UNL1        0.0648
     54 H           0.4258   -3.6029   -0.2254 H       1  UNL1        0.2923
     55 H          -5.6269   -0.5458    0.7168 H       1  UNL1        0.0652
     56 H          -4.2031    1.4164   -1.2077 H       1  UNL1        0.0741
     57 H          -1.9493   -1.9802   -1.6167 H       1  UNL1        0.2101
     58 H          -5.7935   -2.6679   -1.1334 H       1  UNL1        0.2100
     59 H          -6.8681   -0.9414   -1.1008 H       1  UNL1        0.2100
     60 H          -6.9044    3.0390    0.3346 H       1  UNL1        0.2951
@<TRIPOS>BOND
     1     1    13    1
     2     1    22    1
     3     2    19    1
     4     2    28    1
     5     3    26    1
     6     3    54    1
     7     4    28    1
     8     4    32    1
     9     5    29    1
    10     5    57    1
    11     6    30    1
    12     6    58    1
    13     7    31    1
    14     7    59    1
    15     8    33    1
    16     8    60    1
    17     9    33    2
    18    10    14    1
    19    10    18    1
    20    10    24    1
    21    11    12    1
    22    11    13    1
    23    11    15    1
    24    11    16    1
    25    12    14    1
    26    12    21    1
    27    12    34    1
    28    13    19    1
    29    13    35    1
    30    14    17    1
    31    14    36    1
    32    15    18    1
    33    15    37    1
    34    15    38    1
    35    16    20   ar
    36    16    22   ar
    37    17    20    1
    38    17    39    1
    39    17    40    1
    40    18    41    1
    41    18    42    1
    42    19    23    1
    43    19    43    1
    44    20    25   ar
    45    21    23    2
    46    21    44    1
    47    22    26   ar
    48    23    45    1
    49    24    46    1
    50    24    47    1
    51    24    48    1
    52    25    27   ar
    53    25    49    1
    54    26    27   ar
    55    27    50    1
    56    28    29    1
    57    28    51    1
    58    29    30    1
    59    29    52    1
    60    30    31    1
    61    30    53    1
    62    31    32    1
    63    31    55    1
    64    32    33    1
    65    32    56    1
@<TRIPOS>MOLECULE
3303
 46 50 0 0 0
SMALL
GASTEIGER

@<TRIPOS>ATOM
      1 O           1.2637    1.3085    1.0095 O.3     1  UNL1       -0.4811
      2 O          -0.4226    4.1030    0.2280 O.3     1  UNL1       -0.3841
      3 O           3.6602   -0.0341    0.0174 O.3     1  UNL1       -0.4886
      4 N          -3.1421   -1.4326    0.7385 N.3     1  UNL1       -0.3015
      5 C          -0.9948    0.5222    0.6668 C.3     1  UNL1        0.0480
      6 C          -2.2641    0.6554   -0.1818 C.3     1  UNL1        0.0064
      7 C          -2.7221   -0.7967   -0.5345 C.3     1  UNL1        0.0213
      8 C          -0.1311    1.7823    0.8737 C.3     1  UNL1        0.1399
      9 C          -1.3633   -0.1889    1.9867 C.3     1  UNL1       -0.0263
     10 C           0.0265   -0.2845   -0.0579 C.ar    1  UNL1        0.0116
     11 C          -1.6430   -1.5885   -1.3528 C.3     1  UNL1       -0.0110
     12 C          -2.0805   -1.5300    1.7463 C.3     1  UNL1       -0.0001
     13 C          -0.2206   -1.3086   -0.9506 C.ar    1  UNL1       -0.0383
     14 C          -0.1675    2.7990   -0.3002 C.3     1  UNL1        0.1110
     15 C          -2.0876    1.5662   -1.3631 C.2     1  UNL1       -0.0799
     16 C           1.2940    0.1721    0.2369 C.ar    1  UNL1        0.1666
     17 C          -1.1598    2.5316   -1.3965 C.2     1  UNL1       -0.0559
     18 C           0.8920   -1.9526   -1.4924 C.ar    1  UNL1       -0.0546
     19 C          -3.8203   -2.7112    0.5543 C.3     1  UNL1       -0.0124
     20 C           2.4062   -0.4578   -0.2727 C.ar    1  UNL1        0.1622
     21 C           2.1950   -1.5400   -1.1391 C.ar    1  UNL1       -0.0160
     22 C           4.7028   -1.0120    0.0002 C.3     1  UNL1        0.0870
     23 C           5.7789   -0.6027    0.9831 C.3     1  UNL1       -0.0307
     24 H          -3.0571    1.1257    0.4202 H       1  UNL1        0.0368
     25 H          -3.6193   -0.7221   -1.1645 H       1  UNL1        0.0472
     26 H          -0.3858    2.2825    1.8161 H       1  UNL1        0.0772
     27 H          -2.0243    0.4665    2.5698 H       1  UNL1        0.0287
     28 H          -0.4775   -0.3687    2.6094 H       1  UNL1        0.0287
     29 H          -1.7435   -1.2898   -2.4050 H       1  UNL1        0.0329
     30 H          -1.8305   -2.6663   -1.3200 H       1  UNL1        0.0329
     31 H          -1.3470   -2.2965    1.4668 H       1  UNL1        0.0427
     32 H          -2.5119   -1.8533    2.7021 H       1  UNL1        0.0427
     33 H           0.8260    2.8538   -0.7629 H       1  UNL1        0.0675
     34 H          -2.7804    1.4711   -2.1944 H       1  UNL1        0.0573
     35 H          -1.1140    3.1746   -2.2720 H       1  UNL1        0.0596
     36 H           0.7643   -2.7612   -2.2071 H       1  UNL1        0.0622
     37 H          -4.2861   -3.0302    1.4935 H       1  UNL1        0.0391
     38 H          -3.1441   -3.5086    0.2301 H       1  UNL1        0.0391
     39 H          -4.6298   -2.6225   -0.1784 H       1  UNL1        0.0391
     40 H           3.0233   -2.0625   -1.6112 H       1  UNL1        0.0655
     41 H          -0.3728    4.7387   -0.5066 H       1  UNL1        0.2104
     42 H           4.3363   -2.0009    0.3027 H       1  UNL1        0.0694
     43 H           5.1231   -1.0698   -1.0098 H       1  UNL1        0.0694
     44 H           6.5998   -1.3253    0.9887 H       1  UNL1        0.0262
     45 H           6.1790    0.3841    0.7277 H       1  UNL1        0.0262
     46 H           5.3679   -0.5266    1.9954 H       1  UNL1        0.0262
@<TRIPOS>BOND
     1     1     8    1
     2     1    16    1
     3     2    14    1
     4     2    41    1
     5     3    20    1
     6     3    22    1
     7     4     7    1
     8     4    12    1
     9     4    19    1
    10     5     6    1
    11     5     8    1
    12     5     9    1
    13     5    10    1
    14     6     7    1
    15     6    15    1
    16     6    24    1
    17     7    11    1
    18     7    25    1
    19     8    14    1
    20     8    26    1
    21     9    12    1
    22     9    27    1
    23     9    28    1
    24    10    13   ar
    25    10    16   ar
    26    11    13    1
    27    11    29    1
    28    11    30    1
    29    12    31    1
    30    12    32    1
    31    13    18   ar
    32    14    17    1
    33    14    33    1
    34    15    17    2
    35    15    34    1
    36    16    20   ar
    37    17    35    1
    38    18    21   ar
    39    18    36    1
    40    19    37    1
    41    19    38    1
    42    19    39    1
    43    20    21   ar
    44    21    40    1
    45    22    23    1
    46    22    42    1
    47    22    43    1
    48    23    44    1
    49    23    45    1
    50    23    46    1
@<TRIPOS>MOLECULE
5462328
 50 54 0 0 0
SMALL
GASTEIGER

@<TRIPOS>ATOM
      1 O          -0.9199    0.1999    1.4739 O.3     1  UNL1       -0.4799
      2 O          -2.2079   -1.8086    0.4126 O.3     1  UNL1       -0.4536
      3 O          -2.1515    2.6925    0.6363 O.3     1  UNL1       -0.4223
      4 O          -2.5647   -3.8122   -0.6803 O.2     1  UNL1       -0.2511
      5 O          -3.2019    1.4418   -1.0403 O.2     1  UNL1       -0.2507
      6 N           4.1477   -0.4500    0.2841 N.3     1  UNL1       -0.3015
      7 C           1.2935   -0.5616    0.8011 C.3     1  UNL1        0.0491
      8 C           1.9796   -1.4478   -0.2497 C.3     1  UNL1        0.0064
      9 C           3.1773   -0.6232   -0.8238 C.3     1  UNL1        0.0213
     10 C          -0.0929   -1.0065    1.3227 C.3     1  UNL1        0.1509
     11 C           2.2883   -0.2533    1.9375 C.3     1  UNL1       -0.0263
     12 C           0.8607    0.7046    0.1389 C.ar    1  UNL1        0.0116
     13 C           2.7205    0.7076   -1.5147 C.3     1  UNL1       -0.0110
     14 C           3.6224    0.3112    1.4220 C.3     1  UNL1       -0.0001
     15 C           1.5171    1.3590   -0.8879 C.ar    1  UNL1       -0.0383
     16 C          -0.8050   -2.0598    0.4343 C.3     1  UNL1        0.1587
     17 C           1.0010   -1.9396   -1.2855 C.2     1  UNL1       -0.0788
     18 C          -0.3687    1.1073    0.6101 C.ar    1  UNL1        0.1673
     19 C          -0.2763   -2.1987   -0.9686 C.2     1  UNL1       -0.0439
     20 C           5.4405    0.0675   -0.1519 C.3     1  UNL1       -0.0124
     21 C           0.9436    2.5412   -1.3589 C.ar    1  UNL1       -0.0545
     22 C          -0.9502    2.2748    0.1670 C.ar    1  UNL1        0.1733
     23 C          -0.2727    3.0046   -0.8182 C.ar    1  UNL1       -0.0153
     24 C          -2.9727   -2.7734   -0.1788 C.2     1  UNL1        0.3046
     25 C          -4.4170   -2.3768   -0.1279 C.3     1  UNL1        0.0333
     26 C          -3.2572    2.1910   -0.0741 C.2     1  UNL1        0.3093
     27 C          -4.5335    2.7086    0.5198 C.3     1  UNL1        0.0336
     28 H           2.3844   -2.3506    0.2325 H       1  UNL1        0.0368
     29 H           3.6705   -1.2384   -1.5891 H       1  UNL1        0.0472
     30 H          -0.0071   -1.4294    2.3321 H       1  UNL1        0.0783
     31 H           2.4901   -1.1812    2.4896 H       1  UNL1        0.0287
     32 H           1.8612    0.4533    2.6609 H       1  UNL1        0.0287
     33 H           2.4487    0.4609   -2.5501 H       1  UNL1        0.0329
     34 H           3.5394    1.4309   -1.5769 H       1  UNL1        0.0329
     35 H           3.5030    1.3708    1.1638 H       1  UNL1        0.0427
     36 H           4.3412    0.2769    2.2504 H       1  UNL1        0.0427
     37 H          -0.6486   -3.0353    0.9181 H       1  UNL1        0.0817
     38 H           1.3482   -2.1087   -2.3001 H       1  UNL1        0.0574
     39 H          -0.9089   -2.5536   -1.7752 H       1  UNL1        0.0607
     40 H           5.3983    1.1168   -0.4603 H       1  UNL1        0.0391
     41 H           5.8373   -0.5235   -0.9845 H       1  UNL1        0.0391
     42 H           6.1721   -0.0121    0.6603 H       1  UNL1        0.0391
     43 H           1.4154    3.0983   -2.1638 H       1  UNL1        0.0622
     44 H          -0.7043    3.9254   -1.2038 H       1  UNL1        0.0656
     45 H          -4.5618   -1.4364   -0.6657 H       1  UNL1        0.0342
     46 H          -4.7378   -2.2788    0.9122 H       1  UNL1        0.0342
     47 H          -5.0230   -3.1500   -0.6088 H       1  UNL1        0.0342
     48 H          -4.6122    2.3870    1.5611 H       1  UNL1        0.0342
     49 H          -5.3833    2.3027   -0.0363 H       1  UNL1        0.0342
     50 H          -4.5573    3.7988    0.4498 H       1  UNL1        0.0342
@<TRIPOS>BOND
     1     1    10    1
     2     1    18    1
     3     2    16    1
     4     2    24    1
     5     3    22    1
     6     3    26    1
     7     4    24    2
     8     5    26    2
     9     6     9    1
    10     6    14    1
    11     6    20    1
    12     7     8    1
    13     7    10    1
    14     7    11    1
    15     7    12    1
    16     8     9    1
    17     8    17    1
    18     8    28    1
    19     9    13    1
    20     9    29    1
    21    10    16    1
    22    10    30    1
    23    11    14    1
    24    11    31    1
    25    11    32    1
    26    12    15   ar
    27    12    18   ar
    28    13    15    1
    29    13    33    1
    30    13    34    1
    31    14    35    1
    32    14    36    1
    33    15    21   ar
    34    16    19    1
    35    16    37    1
    36    17    19    2
    37    17    38    1
    38    18    22   ar
    39    19    39    1
    40    20    40    1
    41    20    41    1
    42    20    42    1
    43    21    23   ar
    44    21    43    1
    45    22    23   ar
    46    23    44    1
    47    24    25    1
    48    25    45    1
    49    25    46    1
    50    25    47    1
    51    26    27    1
    52    27    48    1
    53    27    49    1
    54    27    50    1
@<TRIPOS>MOLECULE
521115
 41 45 0 0 0
SMALL
GASTEIGER

@<TRIPOS>ATOM
      1 O           1.5927    1.8136   -0.5120 O.3     1  UNL1       -0.4840
      2 O           4.2667    0.5049   -0.4814 O.3     1  UNL1       -0.5033
      3 N          -2.5111   -1.2983   -0.5520 N.3     1  UNL1       -0.3018
      4 C          -0.4179    0.6252   -0.1006 C.3     1  UNL1        0.0418
      5 C          -1.4793    0.3757    0.9464 C.3     1  UNL1       -0.0119
      6 C          -1.8844   -1.1181    0.7754 C.3     1  UNL1        0.0178
      7 C           0.3082    1.9339    0.1611 C.3     1  UNL1        0.1104
      8 C          -0.9535    0.3799   -1.5357 C.3     1  UNL1       -0.0267
      9 C           0.7566   -0.2293    0.1108 C.ar    1  UNL1        0.0112
     10 C          -2.5441    1.4833    0.7854 C.3     1  UNL1       -0.0477
     11 C          -0.6399    3.0792   -0.1513 C.3     1  UNL1       -0.0149
     12 C          -0.6221   -2.0582    1.0531 C.3     1  UNL1       -0.0113
     13 C          -1.6133   -1.0033   -1.6733 C.3     1  UNL1       -0.0002
     14 C          -1.9182    2.9126    0.7221 C.3     1  UNL1       -0.0494
     15 C           0.7155   -1.5184    0.5908 C.ar    1  UNL1       -0.0383
     16 C           1.8990    0.4868   -0.2152 C.ar    1  UNL1        0.1662
     17 C          -3.1533   -2.5985   -0.7137 C.3     1  UNL1       -0.0125
     18 C           1.9473   -2.1577    0.6707 C.ar    1  UNL1       -0.0546
     19 C           3.1186   -0.1369   -0.1615 C.ar    1  UNL1        0.1588
     20 C           3.1327   -1.4762    0.2808 C.ar    1  UNL1       -0.0162
     21 H          -1.0615    0.4827    1.9593 H       1  UNL1        0.0326
     22 H          -2.6418   -1.3464    1.5369 H       1  UNL1        0.0469
     23 H           0.5611    2.0466    1.2315 H       1  UNL1        0.0742
     24 H          -0.1557    0.4664   -2.2850 H       1  UNL1        0.0287
     25 H          -1.6984    1.1360   -1.8077 H       1  UNL1        0.0287
     26 H          -3.2487    1.4368    1.6244 H       1  UNL1        0.0269
     27 H          -3.1443    1.3278   -0.1178 H       1  UNL1        0.0269
     28 H          -0.8933    3.1129   -1.2158 H       1  UNL1        0.0301
     29 H          -0.1580    4.0390    0.0674 H       1  UNL1        0.0301
     30 H          -0.7779   -3.0573    0.6344 H       1  UNL1        0.0329
     31 H          -0.5527   -2.1813    2.1423 H       1  UNL1        0.0329
     32 H          -2.1810   -1.0129   -2.6123 H       1  UNL1        0.0427
     33 H          -0.8414   -1.7762   -1.7743 H       1  UNL1        0.0427
     34 H          -2.6802    3.6259    0.3876 H       1  UNL1        0.0267
     35 H          -1.6572    3.2008    1.7492 H       1  UNL1        0.0267
     36 H          -3.8464   -2.7964    0.1112 H       1  UNL1        0.0391
     37 H          -2.4368   -3.4240   -0.7700 H       1  UNL1        0.0391
     38 H          -3.7523   -2.6125   -1.6314 H       1  UNL1        0.0391
     39 H           2.0169   -3.1764    1.0419 H       1  UNL1        0.0622
     40 H           4.0820   -2.0039    0.3533 H       1  UNL1        0.0655
     41 H           4.0450    1.4138   -0.7494 H       1  UNL1        0.2923
@<TRIPOS>BOND
     1     1     7    1
     2     1    16    1
     3     2    19    1
     4     2    41    1
     5     3     6    1
     6     3    13    1
     7     3    17    1
     8     4     5    1
     9     4     7    1
    10     4     8    1
    11     4     9    1
    12     5     6    1
    13     5    10    1
    14     5    21    1
    15     6    12    1
    16     6    22    1
    17     7    11    1
    18     7    23    1
    19     8    13    1
    20     8    24    1
    21     8    25    1
    22     9    15   ar
    23     9    16   ar
    24    10    14    1
    25    10    26    1
    26    10    27    1
    27    11    14    1
    28    11    28    1
    29    11    29    1
    30    12    15    1
    31    12    30    1
    32    12    31    1
    33    13    32    1
    34    13    33    1
    35    14    34    1
    36    14    35    1
    37    15    18   ar
    38    16    19   ar
    39    17    36    1
    40    17    37    1
    41    17    38    1
    42    18    20   ar
    43    18    39    1
    44    19    20   ar
    45    20    40    1
@<TRIPOS>MOLECULE
5486939
 41 45 0 0 0
SMALL
GASTEIGER

@<TRIPOS>ATOM
      1 O          -2.1657   -0.5387    1.1382 O.3     1  UNL1       -0.4811
      2 O           1.6783    1.1015   -2.4171 O.3     1  UNL1       -0.3856
      3 O          -2.9417   -2.4014   -0.5146 O.3     1  UNL1       -0.3841
      4 O          -3.6565    1.8960    0.6189 O.3     1  UNL1       -0.5033
      5 N           3.0580   -0.2564    0.7568 N.3     1  UNL1       -0.2990
      6 C           0.2155   -0.8366    0.7253 C.3     1  UNL1        0.0482
      7 C           1.1827   -1.3712   -0.3408 C.3     1  UNL1        0.0088
      8 C           2.3031   -0.2912   -0.5197 C.3     1  UNL1        0.0473
      9 C          -1.1392   -1.5631    0.8975 C.3     1  UNL1        0.1399
     10 C           0.9697   -0.6613    2.0587 C.3     1  UNL1       -0.0263
     11 C          -0.3192    0.4772    0.2600 C.ar    1  UNL1        0.0140
     12 C           1.7444    1.1027   -0.9869 C.3     1  UNL1        0.0966
     13 C           2.2574    0.1655    1.9102 C.3     1  UNL1       -0.0001
     14 C           0.3625    1.4260   -0.4811 C.ar    1  UNL1       -0.0101
     15 C          -1.5359   -2.4765   -0.2914 C.3     1  UNL1        0.1110
     16 C           0.4604   -1.7554   -1.6066 C.2     1  UNL1       -0.0798
     17 C          -1.6527    0.6017    0.5814 C.ar    1  UNL1        0.1664
     18 C          -0.7893   -2.2411   -1.5770 C.2     1  UNL1       -0.0559
     19 C          -0.3248    2.6040   -0.7866 C.ar    1  UNL1       -0.0521
     20 C           4.3073    0.4924    0.6701 C.3     1  UNL1       -0.0124
     21 C          -2.3487    1.7543    0.2914 C.ar    1  UNL1        0.1588
     22 C          -1.6657    2.7713   -0.3866 C.ar    1  UNL1       -0.0162
     23 H           1.6567   -2.2965    0.0210 H       1  UNL1        0.0369
     24 H           2.9871   -0.6646   -1.2950 H       1  UNL1        0.0497
     25 H          -1.1293   -2.1858    1.8014 H       1  UNL1        0.0772
     26 H           1.2345   -1.6547    2.4456 H       1  UNL1        0.0287
     27 H           0.3327   -0.1905    2.8187 H       1  UNL1        0.0287
     28 H           2.4308    1.9077   -0.7075 H       1  UNL1        0.0659
     29 H           2.0103    1.2325    1.8485 H       1  UNL1        0.0427
     30 H           2.8424    0.0393    2.8299 H       1  UNL1        0.0427
     31 H          -1.3273   -3.5154   -0.0064 H       1  UNL1        0.0675
     32 H           0.9822   -1.6806   -2.5555 H       1  UNL1        0.0573
     33 H          -1.2564   -2.5511   -2.5075 H       1  UNL1        0.0596
     34 H           0.1605    3.3932   -1.3549 H       1  UNL1        0.0622
     35 H           4.9142    0.3178    1.5658 H       1  UNL1        0.0391
     36 H           4.1538    1.5721    0.5779 H       1  UNL1        0.0391
     37 H           4.9076    0.1532   -0.1811 H       1  UNL1        0.0391
     38 H           1.5927    2.0238   -2.7132 H       1  UNL1        0.2103
     39 H          -2.1817    3.6939   -0.6421 H       1  UNL1        0.0655
     40 H          -3.1555   -1.4829   -0.7520 H       1  UNL1        0.2104
     41 H          -3.9485    1.0849    1.0703 H       1  UNL1        0.2923
@<TRIPOS>BOND
     1     1     9    1
     2     1    17    1
     3     2    12    1
     4     2    38    1
     5     3    15    1
     6     3    40    1
     7     4    21    1
     8     4    41    1
     9     5     8    1
    10     5    13    1
    11     5    20    1
    12     6     7    1
    13     6     9    1
    14     6    10    1
    15     6    11    1
    16     7     8    1
    17     7    16    1
    18     7    23    1
    19     8    12    1
    20     8    24    1
    21     9    15    1
    22     9    25    1
    23    10    13    1
    24    10    26    1
    25    10    27    1
    26    11    14   ar
    27    11    17   ar
    28    12    14    1
    29    12    28    1
    30    13    29    1
    31    13    30    1
    32    14    19   ar
    33    15    18    1
    34    15    31    1
    35    16    18    2
    36    16    32    1
    37    17    21   ar
    38    18    33    1
    39    19    22   ar
    40    19    34    1
    41    20    35    1
    42    20    36    1
    43    20    37    1
    44    21    22   ar
    45    22    39    1
@<TRIPOS>MOLECULE
13544016
 43 44 0 0 0
SMALL
GASTEIGER

@<TRIPOS>ATOM
      1 CL          4.4166   -2.4038    0.4559 Cl      1  UNL1       -0.0820
      2 CL          6.1152    0.3452    0.6470 Cl      1  UNL1       -0.0820
      3 O           0.0751    0.3748   -2.0313 O.2     1  UNL1       -0.2700
      4 N          -2.3133   -1.8332   -0.0217 N.3     1  UNL1       -0.3037
      5 N          -0.6248    0.5616    0.1919 N.am    1  UNL1       -0.2960
      6 C          -2.8054   -0.5510    0.4878 C.3     1  UNL1        0.0284
      7 C          -2.0301    0.6197   -0.1449 C.3     1  UNL1        0.0415
      8 C          -4.3082   -0.4433    0.2002 C.3     1  UNL1       -0.0356
      9 C          -2.6124    1.9699    0.2901 C.3     1  UNL1       -0.0328
     10 C          -4.8705    0.9057    0.6407 C.3     1  UNL1       -0.0515
     11 C          -4.1079    2.0627    0.0047 C.3     1  UNL1       -0.0513
     12 C          -2.5371   -1.9255   -1.4623 C.3     1  UNL1       -0.0127
     13 C          -2.9680   -2.9393    0.6729 C.3     1  UNL1       -0.0127
     14 C          -0.3040    0.6362    1.6193 C.3     1  UNL1        0.0038
     15 C           0.3294    0.4397   -0.8291 C.2     1  UNL1        0.2467
     16 C           1.7538    0.4006   -0.4619 C.ar    1  UNL1        0.0384
     17 C           2.3563   -0.8210   -0.2040 C.ar    1  UNL1       -0.0298
     18 C           2.4690    1.5857   -0.3831 C.ar    1  UNL1       -0.0482
     19 C           3.7074   -0.8586    0.1411 C.ar    1  UNL1        0.0600
     20 C           3.8199    1.5481   -0.0377 C.ar    1  UNL1       -0.0413
     21 C           4.4391    0.3260    0.2244 C.ar    1  UNL1        0.0593
     22 H          -2.6756   -0.5322    1.5767 H       1  UNL1        0.0480
     23 H          -2.1423    0.6212   -1.2327 H       1  UNL1        0.0516
     24 H          -4.8842   -1.2113    0.7268 H       1  UNL1        0.0281
     25 H          -4.5471   -0.5280   -0.8643 H       1  UNL1        0.0281
     26 H          -2.0933    2.7830   -0.2334 H       1  UNL1        0.0284
     27 H          -2.4642    2.1584    1.3589 H       1  UNL1        0.0284
     28 H          -4.8139    0.9866    1.7333 H       1  UNL1        0.0266
     29 H          -5.9308    0.9715    0.3710 H       1  UNL1        0.0266
     30 H          -4.2745    2.0597   -1.0795 H       1  UNL1        0.0266
     31 H          -4.4977    3.0142    0.3837 H       1  UNL1        0.0266
     32 H          -2.0637   -1.1464   -2.0595 H       1  UNL1        0.0391
     33 H          -3.5845   -2.0251   -1.7630 H       1  UNL1        0.0391
     34 H          -2.0537   -2.8474   -1.8141 H       1  UNL1        0.0391
     35 H          -2.9081   -2.8219    1.7609 H       1  UNL1        0.0391
     36 H          -2.4386   -3.8713    0.4407 H       1  UNL1        0.0391
     37 H          -4.0141   -3.0945    0.3893 H       1  UNL1        0.0391
     38 H          -1.1705    0.7891    2.2634 H       1  UNL1        0.0429
     39 H           0.3984    1.4594    1.7796 H       1  UNL1        0.0429
     40 H           0.1879   -0.2973    1.9097 H       1  UNL1        0.0429
     41 H           1.7771   -1.7391   -0.2712 H       1  UNL1        0.0640
     42 H           1.9937    2.5413   -0.5859 H       1  UNL1        0.0625
     43 H           4.3748    2.4810    0.0225 H       1  UNL1        0.0633
@<TRIPOS>BOND
     1     1    19    1
     2     2    21    1
     3     3    15    2
     4     4     6    1
     5     4    12    1
     6     4    13    1
     7     5     7    1
     8     5    14    1
     9     5    15   am
    10     6     7    1
    11     6     8    1
    12     6    22    1
    13     7     9    1
    14     7    23    1
    15     8    10    1
    16     8    24    1
    17     8    25    1
    18     9    11    1
    19     9    26    1
    20     9    27    1
    21    10    11    1
    22    10    28    1
    23    10    29    1
    24    11    30    1
    25    11    31    1
    26    12    32    1
    27    12    33    1
    28    12    34    1
    29    13    35    1
    30    13    36    1
    31    13    37    1
    32    14    38    1
    33    14    39    1
    34    14    40    1
    35    15    16    1
    36    16    17   ar
    37    16    18   ar
    38    17    19   ar
    39    17    41    1
    40    18    20   ar
    41    18    42    1
    42    19    21   ar
    43    20    21   ar
    44    20    43    1
@<TRIPOS>MOLECULE
5359460
 52 56 0 0 0
SMALL
GASTEIGER

@<TRIPOS>ATOM
      1 O           1.1863   -0.2319   -1.4213 O.3     1  UNL1       -0.4803
      2 O           0.6850   -2.4906   -0.0148 O.3     1  UNL1       -0.4578
      3 O           3.3862    0.7121    0.2560 O.3     1  UNL1       -0.4223
      4 O           0.5918   -4.7883   -0.2344 O.2     1  UNL1       -0.2512
      5 O           3.3399    2.8573   -0.6796 O.2     1  UNL1       -0.2507
      6 N          -3.4725    1.7947   -0.3079 N.3     1  UNL1       -0.3018
      7 C          -1.1548    0.1575   -0.9456 C.3     1  UNL1        0.0453
      8 C          -2.4552   -0.4195   -0.3833 C.3     1  UNL1       -0.0117
      9 C          -0.1556   -0.7999   -1.6226 C.3     1  UNL1        0.1470
     10 C          -3.0647    0.6621    0.5597 C.3     1  UNL1        0.0178
     11 C          -1.5194    1.3784   -1.8232 C.3     1  UNL1       -0.0266
     12 C          -0.2545    0.6082    0.1460 C.ar    1  UNL1        0.0113
     13 C          -2.2785   -1.8011    0.2500 C.3     1  UNL1       -0.0444
     14 C          -0.1876   -2.2687   -1.1242 C.3     1  UNL1        0.1405
     15 C          -2.1052    1.0448    1.7414 C.3     1  UNL1       -0.0113
     16 C          -1.5913   -2.7463   -0.7432 C.3     1  UNL1       -0.0118
     17 C          -2.3749    2.4099   -1.0627 C.3     1  UNL1       -0.0002
     18 C          -0.6446    1.0891    1.3795 C.ar    1  UNL1       -0.0383
     19 C           1.0659    0.4426   -0.2254 C.ar    1  UNL1        0.1673
     20 C          -4.2740    2.7990    0.3829 C.3     1  UNL1       -0.0125
     21 C           0.3725    1.4997    2.2405 C.ar    1  UNL1       -0.0545
     22 C           2.0841    0.8565    0.6019 C.ar    1  UNL1        0.1733
     23 C           1.7250    1.4009    1.8440 C.ar    1  UNL1       -0.0153
     24 C           0.7465   -3.7766    0.4359 C.2     1  UNL1        0.3043
     25 C           1.0384   -3.7802    1.9058 C.3     1  UNL1        0.0332
     26 C           3.9365    1.8238   -0.4084 C.2     1  UNL1        0.3093
     27 C           5.3749    1.5665   -0.7473 C.3     1  UNL1        0.0336
     28 H          -3.1554   -0.5748   -1.2197 H       1  UNL1        0.0326
     29 H          -0.3504   -0.8115   -2.7030 H       1  UNL1        0.0780
     30 H          -3.9813    0.2453    0.9983 H       1  UNL1        0.0469
     31 H          -2.0821    1.0296   -2.6998 H       1  UNL1        0.0287
     32 H          -0.6236    1.8804   -2.2113 H       1  UNL1        0.0287
     33 H          -3.2618   -2.2074    0.5155 H       1  UNL1        0.0270
     34 H          -1.6986   -1.7509    1.1778 H       1  UNL1        0.0270
     35 H           0.1952   -2.8869   -1.9475 H       1  UNL1        0.0772
     36 H          -2.2201    0.2787    2.5198 H       1  UNL1        0.0329
     37 H          -2.3999    1.9940    2.1999 H       1  UNL1        0.0329
     38 H          -1.6085   -3.7538   -0.3191 H       1  UNL1        0.0302
     39 H          -2.2005   -2.7964   -1.6553 H       1  UNL1        0.0302
     40 H          -1.7334    3.0052   -0.4011 H       1  UNL1        0.0427
     41 H          -2.7864    3.1102   -1.8005 H       1  UNL1        0.0427
     42 H          -3.6914    3.3916    1.0953 H       1  UNL1        0.0391
     43 H          -5.1082    2.3329    0.9186 H       1  UNL1        0.0391
     44 H          -4.7187    3.4908   -0.3414 H       1  UNL1        0.0391
     45 H           0.1343    1.8847    3.2285 H       1  UNL1        0.0622
     46 H           2.4994    1.7267    2.5351 H       1  UNL1        0.0656
     47 H           0.2375   -3.2663    2.4435 H       1  UNL1        0.0342
     48 H           2.0001   -3.2962    2.0937 H       1  UNL1        0.0342
     49 H           1.0917   -4.8126    2.2627 H       1  UNL1        0.0342
     50 H           5.9444    1.3943    0.1692 H       1  UNL1        0.0342
     51 H           5.7895    2.4403   -1.2578 H       1  UNL1        0.0342
     52 H           5.4476    0.7040   -1.4143 H       1  UNL1        0.0342
@<TRIPOS>BOND
     1     1     9    1
     2     1    19    1
     3     2    14    1
     4     2    24    1
     5     3    22    1
     6     3    26    1
     7     4    24    2
     8     5    26    2
     9     6    10    1
    10     6    17    1
    11     6    20    1
    12     7     8    1
    13     7     9    1
    14     7    11    1
    15     7    12    1
    16     8    10    1
    17     8    13    1
    18     8    28    1
    19     9    14    1
    20     9    29    1
    21    10    15    1
    22    10    30    1
    23    11    17    1
    24    11    31    1
    25    11    32    1
    26    12    18   ar
    27    12    19   ar
    28    13    16    1
    29    13    33    1
    30    13    34    1
    31    14    16    1
    32    14    35    1
    33    15    18    1
    34    15    36    1
    35    15    37    1
    36    16    38    1
    37    16    39    1
    38    17    40    1
    39    17    41    1
    40    18    21   ar
    41    19    22   ar
    42    20    42    1
    43    20    43    1
    44    20    44    1
    45    21    23   ar
    46    21    45    1
    47    22    23   ar
    48    23    46    1
    49    24    25    1
    50    25    47    1
    51    25    48    1
    52    25    49    1
    53    26    27    1
    54    27    50    1
    55    27    51    1
    56    27    52    1
@<TRIPOS>MOLECULE
3592
 50 54 0 0 0
SMALL
GASTEIGER

@<TRIPOS>ATOM
      1 O          -0.9129    1.0540   -1.2419 O.3     1  UNL1       -0.4799
      2 O           1.0848    3.3384    0.1916 O.3     1  UNL1       -0.4536
      3 O          -3.6868    0.2014   -0.9130 O.3     1  UNL1       -0.4223
      4 O           3.1259    2.2823   -0.0432 O.2     1  UNL1       -0.2511
      5 O          -4.4280    0.5181    1.2846 O.2     1  UNL1       -0.2507
      6 N           2.6892   -2.6047   -0.4439 N.3     1  UNL1       -0.3015
      7 C           1.0126   -0.2356   -0.5591 C.3     1  UNL1        0.0491
      8 C           2.0661   -0.4518    0.5328 C.3     1  UNL1        0.0064
      9 C           2.1366   -1.9919    0.7892 C.3     1  UNL1        0.0213
     10 C           0.4843    1.1962   -0.7770 C.3     1  UNL1        0.1509
     11 C           1.5112   -0.9065   -1.8571 C.3     1  UNL1       -0.0263
     12 C          -0.2824   -0.8503   -0.1539 C.ar    1  UNL1        0.0116
     13 C           0.7690   -2.5866    1.2759 C.3     1  UNL1       -0.0110
     14 C           1.8761   -2.3873   -1.6455 C.3     1  UNL1       -0.0001
     15 C          -0.4459   -1.9694    0.6383 C.ar    1  UNL1       -0.0383
     16 C           0.4654    2.0862    0.4961 C.3     1  UNL1        0.1587
     17 C           1.8210    0.3816    1.7583 C.2     1  UNL1       -0.0788
     18 C          -1.3375   -0.1038   -0.6349 C.ar    1  UNL1        0.1673
     19 C           1.1202    1.5225    1.7255 C.2     1  UNL1       -0.0439
     20 C           3.0415   -4.0119   -0.2870 C.3     1  UNL1       -0.0124
     21 C          -1.7556   -2.3917    0.8675 C.ar    1  UNL1       -0.0545
     22 C          -2.6370   -0.5099   -0.4352 C.ar    1  UNL1        0.1733
     23 C          -2.8406   -1.6756    0.3172 C.ar    1  UNL1       -0.0153
     24 C           2.4245    3.2848   -0.0574 C.2     1  UNL1        0.3046
     25 C           2.9341    4.6613   -0.3599 C.3     1  UNL1        0.0333
     26 C          -4.5560    0.6900    0.0797 C.2     1  UNL1        0.3093
     27 C          -5.6799    1.4600   -0.5477 C.3     1  UNL1        0.0336
     28 H           3.0547   -0.1444    0.1629 H       1  UNL1        0.0368
     29 H           2.8707   -2.1663    1.5881 H       1  UNL1        0.0472
     30 H           1.0161    1.6872   -1.6005 H       1  UNL1        0.0783
     31 H           2.4009   -0.3700   -2.2136 H       1  UNL1        0.0287
     32 H           0.7655   -0.8375   -2.6596 H       1  UNL1        0.0287
     33 H           0.6947   -2.3995    2.3556 H       1  UNL1        0.0329
     34 H           0.7402   -3.6734    1.1495 H       1  UNL1        0.0329
     35 H           0.9614   -2.9921   -1.6117 H       1  UNL1        0.0427
     36 H           2.4325   -2.7230   -2.5296 H       1  UNL1        0.0427
     37 H          -0.5710    2.3276    0.7618 H       1  UNL1        0.0817
     38 H           2.2826    0.0725    2.6916 H       1  UNL1        0.0574
     39 H           1.0138    2.0914    2.6460 H       1  UNL1        0.0607
     40 H           3.6282   -4.3524   -1.1476 H       1  UNL1        0.0391
     41 H           2.1656   -4.6629   -0.2023 H       1  UNL1        0.0391
     42 H           3.6722   -4.1609    0.5962 H       1  UNL1        0.0391
     43 H          -1.9514   -3.2663    1.4819 H       1  UNL1        0.0622
     44 H          -3.8484   -2.0413    0.5021 H       1  UNL1        0.0656
     45 H           2.7671    5.3156    0.4994 H       1  UNL1        0.0342
     46 H           2.4331    5.0551   -1.2477 H       1  UNL1        0.0342
     47 H           4.0088    4.6145   -0.5583 H       1  UNL1        0.0342
     48 H          -5.2783    2.3088   -1.1064 H       1  UNL1        0.0342
     49 H          -6.3421    1.8390    0.2359 H       1  UNL1        0.0342
     50 H          -6.2550    0.8031   -1.2048 H       1  UNL1        0.0342
@<TRIPOS>BOND
     1     1    10    1
     2     1    18    1
     3     2    16    1
     4     2    24    1
     5     3    22    1
     6     3    26    1
     7     4    24    2
     8     5    26    2
     9     6     9    1
    10     6    14    1
    11     6    20    1
    12     7     8    1
    13     7    10    1
    14     7    11    1
    15     7    12    1
    16     8     9    1
    17     8    17    1
    18     8    28    1
    19     9    13    1
    20     9    29    1
    21    10    16    1
    22    10    30    1
    23    11    14    1
    24    11    31    1
    25    11    32    1
    26    12    15   ar
    27    12    18   ar
    28    13    15    1
    29    13    33    1
    30    13    34    1
    31    14    35    1
    32    14    36    1
    33    15    21   ar
    34    16    19    1
    35    16    37    1
    36    17    19    2
    37    17    38    1
    38    18    22   ar
    39    19    39    1
    40    20    40    1
    41    20    41    1
    42    20    42    1
    43    21    23   ar
    44    21    43    1
    45    22    23   ar
    46    23    44    1
    47    24    25    1
    48    25    45    1
    49    25    46    1
    50    25    47    1
    51    26    27    1
    52    27    48    1
    53    27    49    1
    54    27    50    1
@<TRIPOS>MOLECULE
235511
 22 22 0 0 0
SMALL
GASTEIGER

@<TRIPOS>ATOM
      1 S           1.9026   -0.5845   -0.1072 S.O2    1  UNL1        0.0563
      2 O           1.9441   -1.9111   -0.7034 O.2     1  UNL1       -0.1532
      3 O           2.7029    0.4912   -0.6723 O.2     1  UNL1       -0.1532
      4 N           2.2533   -0.7150    1.5592 N.3     1  UNL1       -0.2035
      5 N          -3.1311   -1.6101    0.0042 N.pl3   1  UNL1       -0.3579
      6 C           0.2338   -0.0604   -0.0527 C.ar    1  UNL1        0.1096
      7 C          -0.0974    1.2942   -0.0165 C.ar    1  UNL1       -0.0240
      8 C          -0.7737   -1.0251   -0.0457 C.ar    1  UNL1       -0.0144
      9 C          -1.4359    1.6841    0.0266 C.ar    1  UNL1       -0.0552
     10 C          -2.1123   -0.6351   -0.0027 C.ar    1  UNL1        0.0264
     11 C          -2.4433    0.7195    0.0335 C.ar    1  UNL1       -0.0407
     12 C           0.9569    2.3524   -0.0231 C.3     1  UNL1       -0.0379
     13 H          -0.5292   -2.0843   -0.0657 H       1  UNL1        0.0655
     14 H          -1.7125    2.7348    0.0534 H       1  UNL1        0.0621
     15 H          -3.4828    1.0359    0.0668 H       1  UNL1        0.0636
     16 H           1.7100    2.1884    0.7537 H       1  UNL1        0.0278
     17 H           1.4080    2.4583   -1.0142 H       1  UNL1        0.0278
     18 H           0.5186    3.3308    0.2120 H       1  UNL1        0.0278
     19 H           2.3676   -1.6580    1.9504 H       1  UNL1        0.1442
     20 H           2.8833   -0.0153    1.9703 H       1  UNL1        0.1442
     21 H          -4.1017   -1.3277    0.0362 H       1  UNL1        0.1423
     22 H          -2.8923   -2.5925   -0.0214 H       1  UNL1        0.1423
@<TRIPOS>BOND
     1     1     2    2
     2     1     3    2
     3     1     4    1
     4     1     6    1
     5     4    19    1
     6     4    20    1
     7     5    10    1
     8     5    21    1
     9     5    22    1
    10     6     7   ar
    11     6     8   ar
    12     7     9   ar
    13     7    12    1
    14     8    10   ar
    15     8    13    1
    16     9    11   ar
    17     9    14    1
    18    10    11   ar
    19    11    15    1
    20    12    16    1
    21    12    17    1
    22    12    18    1
@<TRIPOS>MOLECULE
5745698
 39 43 0 0 0
SMALL
GASTEIGER

@<TRIPOS>ATOM
      1 BR          3.3744    2.5250   -0.2603 Br      1  UNL1       -0.0798
      2 O           1.9795    0.3574    1.2229 O.3     1  UNL1       -0.4825
      3 O           3.5024   -2.0269    0.5670 O.3     1  UNL1       -0.5033
      4 N          -3.1958    0.1454    0.4396 N.3     1  UNL1       -0.3015
      5 C          -0.3584    0.7187    0.6682 C.3     1  UNL1        0.0466
      6 C          -1.2492    1.3598   -0.4080 C.3     1  UNL1        0.0063
      7 C          -2.3510    0.3108   -0.7679 C.3     1  UNL1        0.0213
      8 C           0.9845    1.4163    1.0049 C.3     1  UNL1        0.1264
      9 C          -1.2064    0.4224    1.9213 C.3     1  UNL1       -0.0264
     10 C           0.2039   -0.5493    0.1173 C.ar    1  UNL1        0.0115
     11 C          -1.7545   -1.0193   -1.3440 C.3     1  UNL1       -0.0110
     12 C          -2.4763   -0.3841    1.6022 C.3     1  UNL1       -0.0001
     13 C          -0.4235   -1.4129   -0.7622 C.ar    1  UNL1       -0.0383
     14 C           1.4310    2.4504   -0.0600 C.3     1  UNL1        0.0707
     15 C          -0.4390    1.8465   -1.5824 C.2     1  UNL1       -0.0812
     16 C           1.5089   -0.7174    0.5194 C.ar    1  UNL1        0.1663
     17 C           0.8030    2.3271   -1.4193 C.2     1  UNL1       -0.0707
     18 C          -4.4261   -0.5987    0.1900 C.3     1  UNL1       -0.0124
     19 C           0.2815   -2.5553   -1.1444 C.ar    1  UNL1       -0.0546
     20 C           2.2219   -1.8408    0.1629 C.ar    1  UNL1        0.1588
     21 C           1.5892   -2.7751   -0.6669 C.ar    1  UNL1       -0.0162
     22 H          -1.7461    2.2515    0.0038 H       1  UNL1        0.0368
     23 H          -2.9886    0.7497   -1.5478 H       1  UNL1        0.0472
     24 H           0.9071    1.9461    1.9634 H       1  UNL1        0.0756
     25 H          -1.5023    1.3760    2.3791 H       1  UNL1        0.0287
     26 H          -0.6243   -0.1194    2.6780 H       1  UNL1        0.0287
     27 H          -1.6020   -0.8691   -2.4215 H       1  UNL1        0.0329
     28 H          -2.4587   -1.8514   -1.2472 H       1  UNL1        0.0329
     29 H          -2.2192   -1.4406    1.4569 H       1  UNL1        0.0427
     30 H          -3.1261   -0.3456    2.4854 H       1  UNL1        0.0427
     31 H           1.1770    3.4530    0.3075 H       1  UNL1        0.0498
     32 H          -0.8883    1.8452   -2.5706 H       1  UNL1        0.0573
     33 H           1.3246    2.7110   -2.2918 H       1  UNL1        0.0581
     34 H          -4.2505   -1.6623    0.0009 H       1  UNL1        0.0391
     35 H          -4.9699   -0.1793   -0.6635 H       1  UNL1        0.0391
     36 H          -5.0965   -0.5197    1.0533 H       1  UNL1        0.0391
     37 H          -0.1617   -3.2698   -1.8330 H       1  UNL1        0.0622
     38 H           2.1174   -3.6712   -0.9848 H       1  UNL1        0.0655
     39 H           3.8270   -2.8690    0.2042 H       1  UNL1        0.2923
@<TRIPOS>BOND
     1     1    14    1
     2     2     8    1
     3     2    16    1
     4     3    20    1
     5     3    39    1
     6     4     7    1
     7     4    12    1
     8     4    18    1
     9     5     6    1
    10     5     8    1
    11     5     9    1
    12     5    10    1
    13     6     7    1
    14     6    15    1
    15     6    22    1
    16     7    11    1
    17     7    23    1
    18     8    14    1
    19     8    24    1
    20     9    12    1
    21     9    25    1
    22     9    26    1
    23    10    13   ar
    24    10    16   ar
    25    11    13    1
    26    11    27    1
    27    11    28    1
    28    12    29    1
    29    12    30    1
    30    13    19   ar
    31    14    17    1
    32    14    31    1
    33    15    17    2
    34    15    32    1
    35    16    20   ar
    36    17    33    1
    37    18    34    1
    38    18    35    1
    39    18    36    1
    40    19    21   ar
    41    19    37    1
    42    20    21   ar
    43    21    38    1
@<TRIPOS>MOLECULE
163285335
 66 71 0 0 0
SMALL
GASTEIGER

@<TRIPOS>ATOM
      1 O          -0.5926    0.8460   -0.9182 O.3     1  UNL1       -0.4811
      2 O           1.2042   -0.0687    0.7509 O.3     1  UNL1       -0.3377
      3 O          -1.1956    3.5901   -0.1778 O.3     1  UNL1       -0.4886
      4 O           3.3344   -1.0150    0.6273 O.3     1  UNL1       -0.3315
      5 O           2.0677    2.0871   -0.8817 O.3     1  UNL1       -0.3841
      6 O           4.0823    0.7911   -2.2547 O.3     1  UNL1       -0.3864
      7 O           6.4465    0.1204   -0.9830 O.3     1  UNL1       -0.3860
      8 O           6.5730   -2.3106    0.2724 O.3     1  UNL1       -0.4788
      9 O           4.9867   -2.4633    1.9019 O.2     1  UNL1       -0.2480
     10 N          -4.5865   -2.5465   -0.8320 N.3     1  UNL1       -0.3015
     11 C          -2.1132   -1.0367   -0.6588 C.3     1  UNL1        0.0480
     12 C          -2.4582   -2.1737    0.3143 C.3     1  UNL1        0.0064
     13 C          -0.6300   -0.6176   -0.7808 C.3     1  UNL1        0.1402
     14 C          -4.0125   -2.1687    0.4823 C.3     1  UNL1        0.0213
     15 C          -2.7694   -1.3188   -2.0250 C.3     1  UNL1       -0.0263
     16 C          -2.6341    0.2441   -0.0954 C.ar    1  UNL1        0.0116
     17 C          -4.5525   -0.8223    1.0764 C.3     1  UNL1       -0.0110
     18 C          -4.2764   -1.6038   -1.9113 C.3     1  UNL1       -0.0001
     19 C           0.2697   -1.0835    0.3945 C.3     1  UNL1        0.1175
     20 C          -3.7846    0.4016    0.6558 C.ar    1  UNL1       -0.0383
     21 C          -1.6869   -2.0577    1.6037 C.2     1  UNL1       -0.0799
     22 C          -1.7529    1.2753   -0.3317 C.ar    1  UNL1        0.1666
     23 C          -0.4486   -1.5437    1.6328 C.2     1  UNL1       -0.0556
     24 C          -4.0981    1.6956    1.0750 C.ar    1  UNL1       -0.0546
     25 C          -6.0141   -2.8435   -0.7782 C.3     1  UNL1       -0.0124
     26 C          -2.0453    2.5619    0.0637 C.ar    1  UNL1        0.1622
     27 C          -3.2418    2.7705    0.7616 C.ar    1  UNL1       -0.0160
     28 C           2.3962   -0.1613   -0.0282 C.3     1  UNL1        0.1893
     29 C           2.9743    1.2506   -0.1705 C.3     1  UNL1        0.1342
     30 C           4.3122    1.2190   -0.9080 C.3     1  UNL1        0.1145
     31 C           5.2540    0.2327   -0.2142 C.3     1  UNL1        0.1201
     32 C           4.5755   -1.1295   -0.0665 C.3     1  UNL1        0.1859
     33 C          -1.1695    4.6556    0.7747 C.3     1  UNL1        0.0870
     34 C           5.3662   -2.0326    0.8232 C.2     1  UNL1        0.3367
     35 C           0.2198    5.2557    0.8055 C.3     1  UNL1       -0.0307
     36 H          -2.1637   -3.1394   -0.1239 H       1  UNL1        0.0368
     37 H          -0.1965   -1.0124   -1.7087 H       1  UNL1        0.0772
     38 H          -4.2753   -2.9682    1.1888 H       1  UNL1        0.0472
     39 H          -2.2801   -2.1924   -2.4767 H       1  UNL1        0.0287
     40 H          -2.6190   -0.4831   -2.7206 H       1  UNL1        0.0287
     41 H          -4.4711   -0.8920    2.1696 H       1  UNL1        0.0329
     42 H          -5.6155   -0.6831    0.8564 H       1  UNL1        0.0329
     43 H          -4.8238   -0.6623   -1.7793 H       1  UNL1        0.0427
     44 H          -4.6101   -2.0203   -2.8701 H       1  UNL1        0.0427
     45 H           0.8145   -1.9820    0.0661 H       1  UNL1        0.0679
     46 H          -2.1291   -2.4410    2.5181 H       1  UNL1        0.0573
     47 H           0.0894   -1.5245    2.5765 H       1  UNL1        0.0596
     48 H          -4.9936    1.8808    1.6623 H       1  UNL1        0.0622
     49 H          -6.2328   -3.5684    0.0135 H       1  UNL1        0.0391
     50 H          -6.6293   -1.9535   -0.6135 H       1  UNL1        0.0391
     51 H          -6.3392   -3.3043   -1.7180 H       1  UNL1        0.0391
     52 H          -3.5455    3.7608    1.0911 H       1  UNL1        0.0655
     53 H           2.1548   -0.5663   -1.0192 H       1  UNL1        0.0938
     54 H           3.1126    1.6871    0.8266 H       1  UNL1        0.0671
     55 H           4.7562    2.2177   -0.9747 H       1  UNL1        0.0648
     56 H           5.5233    0.6248    0.7749 H       1  UNL1        0.0652
     57 H           4.4237   -1.6549   -1.0164 H       1  UNL1        0.0741
     58 H          -1.8993    5.4172    0.4792 H       1  UNL1        0.0694
     59 H          -1.3984    4.3021    1.7879 H       1  UNL1        0.0694
     60 H           2.4651    2.9731   -0.9339 H       1  UNL1        0.2101
     61 H           3.7587   -0.1224   -2.2636 H       1  UNL1        0.2100
     62 H           6.8388    1.0079   -1.0475 H       1  UNL1        0.2100
     63 H           0.9604    4.4991    1.0857 H       1  UNL1        0.0262
     64 H           0.5025    5.6241   -0.1863 H       1  UNL1        0.0262
     65 H           0.2736    6.0837    1.5179 H       1  UNL1        0.0262
     66 H           7.1091   -2.9014    0.8433 H       1  UNL1        0.2951
@<TRIPOS>BOND
     1     1    13    1
     2     1    22    1
     3     2    19    1
     4     2    28    1
     5     3    26    1
     6     3    33    1
     7     4    28    1
     8     4    32    1
     9     5    29    1
    10     5    60    1
    11     6    30    1
    12     6    61    1
    13     7    31    1
    14     7    62    1
    15     8    34    1
    16     8    66    1
    17     9    34    2
    18    10    14    1
    19    10    18    1
    20    10    25    1
    21    11    12    1
    22    11    13    1
    23    11    15    1
    24    11    16    1
    25    12    14    1
    26    12    21    1
    27    12    36    1
    28    13    19    1
    29    13    37    1
    30    14    17    1
    31    14    38    1
    32    15    18    1
    33    15    39    1
    34    15    40    1
    35    16    20   ar
    36    16    22   ar
    37    17    20    1
    38    17    41    1
    39    17    42    1
    40    18    43    1
    41    18    44    1
    42    19    23    1
    43    19    45    1
    44    20    24   ar
    45    21    23    2
    46    21    46    1
    47    22    26   ar
    48    23    47    1
    49    24    27   ar
    50    24    48    1
    51    25    49    1
    52    25    50    1
    53    25    51    1
    54    26    27   ar
    55    27    52    1
    56    28    29    1
    57    28    53    1
    58    29    30    1
    59    29    54    1
    60    30    31    1
    61    30    55    1
    62    31    32    1
    63    31    56    1
    64    32    34    1
    65    32    57    1
    66    33    35    1
    67    33    58    1
    68    33    59    1
    69    35    63    1
    70    35    64    1
    71    35    65    1
@<TRIPOS>MOLECULE
2162
 53 54 0 0 0
SMALL
GASTEIGER

@<TRIPOS>ATOM
      1 CL         -2.9012   -2.3251    1.3735 Cl      1  UNL1       -0.0832
      2 O           3.2092    1.1360   -0.2764 O.3     1  UNL1       -0.3727
      3 O           1.9542   -1.3638    0.8823 O.3     1  UNL1       -0.4616
      4 O          -3.8016    1.1916    1.1105 O.3     1  UNL1       -0.4646
      5 O           0.4980   -1.3126    2.6812 O.2     1  UNL1       -0.2452
      6 O          -3.8266    1.6957   -1.1488 O.2     1  UNL1       -0.2452
      7 N           0.3522    2.4185   -0.0052 N.pl3   1  UNL1       -0.3187
      8 N           6.7751    0.9953   -1.1802 N.3     1  UNL1       -0.3279
      9 C          -1.1864    0.1049    0.5493 C.3     1  UNL1        0.0521
     10 C           0.3030    0.2284    0.8910 C.2     1  UNL1        0.0677
     11 C          -1.7901    1.4139    0.0306 C.2     1  UNL1        0.0652
     12 C           0.9993    1.3492    0.5938 C.2     1  UNL1        0.0448
     13 C          -1.0107    2.4836   -0.2460 C.2     1  UNL1        0.0157
     14 C          -1.3910   -0.9886   -0.4597 C.ar    1  UNL1       -0.0168
     15 C           2.4674    1.5578    0.8507 C.3     1  UNL1        0.0861
     16 C           0.9096   -0.9028    1.6115 C.2     1  UNL1        0.3376
     17 C          -1.4940    3.7940   -0.8061 C.3     1  UNL1       -0.0260
     18 C          -3.2555    1.4569   -0.1008 C.2     1  UNL1        0.3373
     19 C          -2.1521   -2.1207   -0.1679 C.ar    1  UNL1        0.0450
     20 C          -0.7979   -0.8515   -1.7146 C.ar    1  UNL1       -0.0563
     21 C          -2.3199   -3.1154   -1.1314 C.ar    1  UNL1       -0.0431
     22 C          -0.9657   -1.8463   -2.6780 C.ar    1  UNL1       -0.0614
     23 C          -1.7266   -2.9782   -2.3863 C.ar    1  UNL1       -0.0604
     24 C           4.6091    1.3126   -0.0850 C.3     1  UNL1        0.0604
     25 C           2.6521   -2.4738    1.4563 C.3     1  UNL1        0.0900
     26 C           5.3379    0.8180   -1.3242 C.3     1  UNL1        0.0167
     27 C          -5.2324    1.1965    1.1453 C.3     1  UNL1        0.0820
     28 C           3.7844   -2.8743    0.5348 C.3     1  UNL1       -0.0306
     29 H          -1.6775   -0.0979    1.5063 H       1  UNL1        0.0452
     30 H           0.9063    3.2363   -0.2333 H       1  UNL1        0.1516
     31 H           2.6678    2.6178    1.0541 H       1  UNL1        0.0623
     32 H           2.7910    1.0048    1.7408 H       1  UNL1        0.0623
     33 H          -1.1214    3.9260   -1.8274 H       1  UNL1        0.0290
     34 H          -2.5827    3.8830   -0.8300 H       1  UNL1        0.0290
     35 H          -1.1230    4.6253   -0.1960 H       1  UNL1        0.0290
     36 H          -0.1987    0.0172   -1.9729 H       1  UNL1        0.0621
     37 H          -2.9100   -4.0035   -0.9200 H       1  UNL1        0.0632
     38 H          -0.5035   -1.7399   -3.6551 H       1  UNL1        0.0618
     39 H          -1.8570   -3.7527   -3.1364 H       1  UNL1        0.0618
     40 H           4.9308    0.7445    0.7965 H       1  UNL1        0.0572
     41 H           4.8214    2.3754    0.0828 H       1  UNL1        0.0572
     42 H           1.9604   -3.3147    1.5799 H       1  UNL1        0.0695
     43 H           3.0544   -2.1864    2.4342 H       1  UNL1        0.0695
     44 H           4.9843    1.3640   -2.2060 H       1  UNL1        0.0444
     45 H           5.1041   -0.2383   -1.4997 H       1  UNL1        0.0444
     46 H          -5.6151    2.1829    0.8662 H       1  UNL1        0.0661
     47 H          -5.6295    0.4245    0.4793 H       1  UNL1        0.0661
     48 H          -5.5480    0.9736    2.1680 H       1  UNL1        0.0661
     49 H           3.4005   -3.1362   -0.4566 H       1  UNL1        0.0262
     50 H           4.4803   -2.0405    0.3961 H       1  UNL1        0.0262
     51 H           4.3342   -3.7288    0.9390 H       1  UNL1        0.0262
     52 H           7.1094    0.4597   -0.3801 H       1  UNL1        0.1183
     53 H           7.2473    0.6118   -1.9978 H       1  UNL1        0.1183
@<TRIPOS>BOND
     1     1    19    1
     2     2    15    1
     3     2    24    1
     4     3    16    1
     5     3    25    1
     6     4    18    1
     7     4    27    1
     8     5    16    2
     9     6    18    2
    10     7    12    1
    11     7    13    1
    12     7    30    1
    13     8    26    1
    14     8    52    1
    15     8    53    1
    16     9    10    1
    17     9    11    1
    18     9    14    1
    19     9    29    1
    20    10    12    2
    21    10    16    1
    22    11    13    2
    23    11    18    1
    24    12    15    1
    25    13    17    1
    26    14    19   ar
    27    14    20   ar
    28    15    31    1
    29    15    32    1
    30    17    33    1
    31    17    34    1
    32    17    35    1
    33    19    21   ar
    34    20    22   ar
    35    20    36    1
    36    21    23   ar
    37    21    37    1
    38    22    23   ar
    39    22    38    1
    40    23    39    1
    41    24    26    1
    42    24    40    1
    43    24    41    1
    44    25    28    1
    45    25    42    1
    46    25    43    1
    47    26    44    1
    48    26    45    1
    49    27    46    1
    50    27    47    1
    51    27    48    1
    52    28    49    1
    53    28    50    1
    54    28    51    1
@<TRIPOS>MOLECULE
430245
 37 41 0 0 0
SMALL
GASTEIGER

@<TRIPOS>ATOM
      1 O           1.3870    1.3017    1.1420 O.3     1  UNL1       -0.4811
      2 O          -0.4524    3.8701    0.0394 O.3     1  UNL1       -0.3841
      3 O           3.9712    0.1232    0.4625 O.3     1  UNL1       -0.5033
      4 N          -2.6960   -1.8767    0.6546 N.3     1  UNL1       -0.3123
      5 C          -0.7545    0.2950    0.6570 C.3     1  UNL1        0.0480
      6 C          -1.9433    0.2588   -0.3079 C.3     1  UNL1        0.0062
      7 C          -0.0234    1.6385    0.8485 C.3     1  UNL1        0.1399
      8 C          -2.2330   -1.2422   -0.5976 C.3     1  UNL1        0.0188
      9 C           0.3954   -0.4620    0.0860 C.ar    1  UNL1        0.0116
     10 C          -1.1922   -0.3610    1.9847 C.3     1  UNL1       -0.0265
     11 C          -1.0297   -2.0084   -1.2374 C.3     1  UNL1       -0.0112
     12 C           0.3210   -1.5630   -0.7456 C.ar    1  UNL1       -0.0383
     13 C          -1.7556   -1.7760    1.7723 C.3     1  UNL1       -0.0029
     14 C          -0.0306    2.5734   -0.3917 C.3     1  UNL1        0.1110
     15 C          -1.7334    1.1058   -1.5295 C.2     1  UNL1       -0.0799
     16 C           1.5862    0.1265    0.4576 C.ar    1  UNL1        0.1663
     17 C          -0.8920    2.1479   -1.5479 C.2     1  UNL1       -0.0559
     18 C           1.5303   -2.1370   -1.1377 C.ar    1  UNL1       -0.0546
     19 C           2.7906   -0.4313    0.0949 C.ar    1  UNL1        0.1588
     20 C           2.7545   -1.5832   -0.7042 C.ar    1  UNL1       -0.0162
     21 H          -2.8285    0.6877    0.1866 H       1  UNL1        0.0368
     22 H          -0.4073    2.1700    1.7282 H       1  UNL1        0.0772
     23 H          -3.0750   -1.3134   -1.2980 H       1  UNL1        0.0469
     24 H          -1.9660    0.2632    2.4512 H       1  UNL1        0.0287
     25 H          -0.3624   -0.4142    2.7011 H       1  UNL1        0.0287
     26 H          -1.0574   -1.8320   -2.3207 H       1  UNL1        0.0329
     27 H          -1.1431   -3.0891   -1.0878 H       1  UNL1        0.0329
     28 H          -0.9347   -2.4886    1.6302 H       1  UNL1        0.0424
     29 H          -2.2686   -2.0910    2.6881 H       1  UNL1        0.0424
     30 H           0.9933    2.6967   -0.7658 H       1  UNL1        0.0675
     31 H          -2.9140   -2.8578    0.4835 H       1  UNL1        0.1222
     32 H          -2.3346    0.8974   -2.4099 H       1  UNL1        0.0573
     33 H          -0.8197    2.7373   -2.4586 H       1  UNL1        0.0596
     34 H           1.5403   -3.0048   -1.7918 H       1  UNL1        0.0622
     35 H           3.6845   -2.0479   -1.0241 H       1  UNL1        0.0655
     36 H          -0.4001    4.4702   -0.7243 H       1  UNL1        0.2104
     37 H           3.7845    0.9132    0.9991 H       1  UNL1        0.2923
@<TRIPOS>BOND
     1     1     7    1
     2     1    16    1
     3     2    14    1
     4     2    36    1
     5     3    19    1
     6     3    37    1
     7     4     8    1
     8     4    13    1
     9     4    31    1
    10     5     6    1
    11     5     7    1
    12     5     9    1
    13     5    10    1
    14     6     8    1
    15     6    15    1
    16     6    21    1
    17     7    14    1
    18     7    22    1
    19     8    11    1
    20     8    23    1
    21     9    12   ar
    22     9    16   ar
    23    10    13    1
    24    10    24    1
    25    10    25    1
    26    11    12    1
    27    11    26    1
    28    11    27    1
    29    12    18   ar
    30    13    28    1
    31    13    29    1
    32    14    17    1
    33    14    30    1
    34    15    17    2
    35    15    32    1
    36    16    19   ar
    37    17    33    1
    38    18    20   ar
    39    18    34    1
    40    19    20   ar
    41    20    35    1
@<TRIPOS>MOLECULE
627484
 43 47 0 0 0
SMALL
GASTEIGER

@<TRIPOS>ATOM
      1 O          -1.9044    0.7961   -1.3652 O.3     1  UNL1       -0.4813
      2 O           2.4773    1.7656   -0.3517 O.3     1  UNL1       -0.3860
      3 O          -1.9761    2.1174    1.0021 O.3     1  UNL1       -0.3881
      4 O          -4.0556   -1.0672   -0.6900 O.3     1  UNL1       -0.5033
      5 N           2.8721   -0.9730   -0.4091 N.3     1  UNL1       -0.2993
      6 C           0.3995    0.5263   -0.6789 C.3     1  UNL1        0.0701
      7 C           1.5006    0.9386    0.3085 C.3     1  UNL1        0.0951
      8 C           2.1931   -0.3852    0.7768 C.3     1  UNL1        0.0438
      9 C          -0.6880    1.5600   -1.0392 C.3     1  UNL1        0.1384
     10 C           1.0455   -0.1373   -1.9215 C.3     1  UNL1       -0.0242
     11 C          -0.5158   -0.4719   -0.0608 C.ar    1  UNL1        0.0137
     12 C           0.9617    1.8193    1.4448 C.3     1  UNL1       -0.0191
     13 C          -1.0151    2.6055    0.0630 C.3     1  UNL1        0.0930
     14 C           1.1981   -1.3567    1.5035 C.3     1  UNL1       -0.0089
     15 C           0.2096    3.0323    0.8708 C.3     1  UNL1       -0.0207
     16 C           1.9850   -1.2973   -1.5326 C.3     1  UNL1        0.0000
     17 C          -0.1800   -1.4065    0.8989 C.ar    1  UNL1       -0.0382
     18 C          -1.7925   -0.3242   -0.5681 C.ar    1  UNL1        0.1664
     19 C           3.7545   -2.0883   -0.0849 C.3     1  UNL1       -0.0124
     20 C          -1.1894   -2.2820    1.2982 C.ar    1  UNL1       -0.0546
     21 C          -2.7979   -1.1885   -0.2012 C.ar    1  UNL1        0.1588
     22 C          -2.4822   -2.1831    0.7366 C.ar    1  UNL1       -0.0162
     23 H           2.9863   -0.1150    1.4871 H       1  UNL1        0.0494
     24 H          -0.3833    2.1056   -1.9413 H       1  UNL1        0.0769
     25 H           1.6183    0.6137   -2.4809 H       1  UNL1        0.0288
     26 H           0.2881   -0.5190   -2.6187 H       1  UNL1        0.0288
     27 H           1.7971    2.1917    2.0511 H       1  UNL1        0.0294
     28 H           0.3034    1.2623    2.1197 H       1  UNL1        0.0294
     29 H          -1.4706    3.4863   -0.4042 H       1  UNL1        0.0630
     30 H           1.0860   -1.0050    2.5376 H       1  UNL1        0.0329
     31 H           1.6085   -2.3693    1.5679 H       1  UNL1        0.0329
     32 H          -0.1098    3.6595    1.7127 H       1  UNL1        0.0292
     33 H           0.8716    3.6494    0.2542 H       1  UNL1        0.0292
     34 H           1.3908   -2.1924   -1.3104 H       1  UNL1        0.0427
     35 H           2.5892   -1.5449   -2.4145 H       1  UNL1        0.0427
     36 H           2.0173    2.3605   -0.9669 H       1  UNL1        0.2103
     37 H           4.3854   -2.3334   -0.9469 H       1  UNL1        0.0391
     38 H           3.2085   -2.9942    0.1964 H       1  UNL1        0.0391
     39 H           4.4352   -1.8245    0.7318 H       1  UNL1        0.0391
     40 H          -0.9933   -3.0388    2.0530 H       1  UNL1        0.0622
     41 H          -2.8037    1.9647    0.5149 H       1  UNL1        0.2099
     42 H          -3.2476   -2.8812    1.0692 H       1  UNL1        0.0655
     43 H          -4.6122   -1.7633   -0.3004 H       1  UNL1        0.2923
@<TRIPOS>BOND
     1     1     9    1
     2     1    18    1
     3     2     7    1
     4     2    36    1
     5     3    13    1
     6     3    41    1
     7     4    21    1
     8     4    43    1
     9     5     8    1
    10     5    16    1
    11     5    19    1
    12     6     7    1
    13     6     9    1
    14     6    10    1
    15     6    11    1
    16     7     8    1
    17     7    12    1
    18     8    14    1
    19     8    23    1
    20     9    13    1
    21     9    24    1
    22    10    16    1
    23    10    25    1
    24    10    26    1
    25    11    17   ar
    26    11    18   ar
    27    12    15    1
    28    12    27    1
    29    12    28    1
    30    13    15    1
    31    13    29    1
    32    14    17    1
    33    14    30    1
    34    14    31    1
    35    15    32    1
    36    15    33    1
    37    16    34    1
    38    16    35    1
    39    17    20   ar
    40    18    21   ar
    41    19    37    1
    42    19    38    1
    43    19    39    1
    44    20    22   ar
    45    20    40    1
    46    21    22   ar
    47    22    42    1
@<TRIPOS>MOLECULE
5463858
 43 47 0 0 0
SMALL
GASTEIGER

@<TRIPOS>ATOM
      1 O          -1.9044    0.7961   -1.3652 O.3     1  UNL1       -0.4813
      2 O           2.4773    1.7656   -0.3517 O.3     1  UNL1       -0.3860
      3 O          -1.9761    2.1174    1.0021 O.3     1  UNL1       -0.3881
      4 O          -4.0556   -1.0672   -0.6900 O.3     1  UNL1       -0.5033
      5 N           2.8721   -0.9730   -0.4091 N.3     1  UNL1       -0.2993
      6 C           0.3995    0.5263   -0.6789 C.3     1  UNL1        0.0701
      7 C           1.5006    0.9386    0.3085 C.3     1  UNL1        0.0951
      8 C           2.1931   -0.3852    0.7768 C.3     1  UNL1        0.0438
      9 C          -0.6880    1.5600   -1.0392 C.3     1  UNL1        0.1384
     10 C           1.0455   -0.1373   -1.9215 C.3     1  UNL1       -0.0242
     11 C          -0.5158   -0.4719   -0.0608 C.ar    1  UNL1        0.0137
     12 C           0.9617    1.8193    1.4448 C.3     1  UNL1       -0.0191
     13 C          -1.0151    2.6055    0.0630 C.3     1  UNL1        0.0930
     14 C           1.1981   -1.3567    1.5035 C.3     1  UNL1       -0.0089
     15 C           0.2096    3.0323    0.8708 C.3     1  UNL1       -0.0207
     16 C           1.9850   -1.2973   -1.5326 C.3     1  UNL1        0.0000
     17 C          -0.1800   -1.4065    0.8989 C.ar    1  UNL1       -0.0382
     18 C          -1.7925   -0.3242   -0.5681 C.ar    1  UNL1        0.1664
     19 C           3.7545   -2.0883   -0.0849 C.3     1  UNL1       -0.0124
     20 C          -1.1894   -2.2820    1.2982 C.ar    1  UNL1       -0.0546
     21 C          -2.7979   -1.1885   -0.2012 C.ar    1  UNL1        0.1588
     22 C          -2.4822   -2.1831    0.7366 C.ar    1  UNL1       -0.0162
     23 H           2.9863   -0.1150    1.4871 H       1  UNL1        0.0494
     24 H          -0.3833    2.1056   -1.9413 H       1  UNL1        0.0769
     25 H           1.6183    0.6137   -2.4809 H       1  UNL1        0.0288
     26 H           0.2881   -0.5190   -2.6187 H       1  UNL1        0.0288
     27 H           1.7971    2.1917    2.0511 H       1  UNL1        0.0294
     28 H           0.3034    1.2623    2.1197 H       1  UNL1        0.0294
     29 H          -1.4706    3.4863   -0.4042 H       1  UNL1        0.0630
     30 H           1.0860   -1.0050    2.5376 H       1  UNL1        0.0329
     31 H           1.6085   -2.3693    1.5679 H       1  UNL1        0.0329
     32 H          -0.1098    3.6595    1.7127 H       1  UNL1        0.0292
     33 H           0.8716    3.6494    0.2542 H       1  UNL1        0.0292
     34 H           1.3908   -2.1924   -1.3104 H       1  UNL1        0.0427
     35 H           2.5892   -1.5449   -2.4145 H       1  UNL1        0.0427
     36 H           2.0173    2.3605   -0.9669 H       1  UNL1        0.2103
     37 H           4.3854   -2.3334   -0.9469 H       1  UNL1        0.0391
     38 H           3.2085   -2.9942    0.1964 H       1  UNL1        0.0391
     39 H           4.4352   -1.8245    0.7318 H       1  UNL1        0.0391
     40 H          -0.9933   -3.0388    2.0530 H       1  UNL1        0.0622
     41 H          -2.8037    1.9647    0.5149 H       1  UNL1        0.2099
     42 H          -3.2476   -2.8812    1.0692 H       1  UNL1        0.0655
     43 H          -4.6122   -1.7633   -0.3004 H       1  UNL1        0.2923
@<TRIPOS>BOND
     1     1     9    1
     2     1    18    1
     3     2     7    1
     4     2    36    1
     5     3    13    1
     6     3    41    1
     7     4    21    1
     8     4    43    1
     9     5     8    1
    10     5    16    1
    11     5    19    1
    12     6     7    1
    13     6     9    1
    14     6    10    1
    15     6    11    1
    16     7     8    1
    17     7    12    1
    18     8    14    1
    19     8    23    1
    20     9    13    1
    21     9    24    1
    22    10    16    1
    23    10    25    1
    24    10    26    1
    25    11    17   ar
    26    11    18   ar
    27    12    15    1
    28    12    27    1
    29    12    28    1
    30    13    15    1
    31    13    29    1
    32    14    17    1
    33    14    30    1
    34    14    31    1
    35    15    32    1
    36    15    33    1
    37    16    34    1
    38    16    35    1
    39    17    20   ar
    40    18    21   ar
    41    19    37    1
    42    19    38    1
    43    19    39    1
    44    20    22   ar
    45    20    40    1
    46    21    22   ar
    47    22    42    1
@<TRIPOS>MOLECULE
5492914
 48 52 0 0 0
SMALL
GASTEIGER

@<TRIPOS>ATOM
      1 O          -1.4472   -0.9056   -1.1633 O.3     1  UNL1       -0.4814
      2 O          -3.3526    0.8943   -0.3419 O.3     1  UNL1       -0.3731
      3 O          -1.4722   -3.7331   -0.5308 O.3     1  UNL1       -0.5033
      4 N           3.0530    1.7537   -0.3582 N.3     1  UNL1       -0.3018
      5 C           0.4019    0.6156   -0.6773 C.3     1  UNL1        0.0443
      6 C           0.7518    1.5867    0.4579 C.3     1  UNL1       -0.0117
      7 C          -1.0832    0.5141   -1.0798 C.3     1  UNL1        0.1363
      8 C           2.2538    1.3400    0.8193 C.3     1  UNL1        0.0178
      9 C           1.3047    0.8865   -1.8984 C.3     1  UNL1       -0.0266
     10 C           0.6002   -0.7621   -0.1572 C.ar    1  UNL1        0.0113
     11 C          -0.1925    1.4904    1.6786 C.3     1  UNL1       -0.0454
     12 C          -2.0016    1.2772   -0.1124 C.3     1  UNL1        0.0963
     13 C           2.5257   -0.1334    1.2955 C.3     1  UNL1       -0.0113
     14 C          -1.6281    1.0604    1.3511 C.3     1  UNL1       -0.0228
     15 C           2.7991    0.9398   -1.5499 C.3     1  UNL1       -0.0002
     16 C           1.6027   -1.1698    0.7057 C.ar    1  UNL1       -0.0383
     17 C          -0.4433   -1.5804   -0.5230 C.ar    1  UNL1        0.1663
     18 C           4.4813    1.8629   -0.0799 C.3     1  UNL1       -0.0125
     19 C           1.6119   -2.5143    1.0803 C.ar    1  UNL1       -0.0546
     20 C          -0.4562   -2.9112   -0.1648 C.ar    1  UNL1        0.1588
     21 C           0.5986   -3.3827    0.6277 C.ar    1  UNL1       -0.0162
     22 C          -4.2442    1.6538    0.4574 C.3     1  UNL1        0.0454
     23 C          -5.6637    1.2172    0.1635 C.3     1  UNL1       -0.0416
     24 H           0.6484    2.6136    0.0744 H       1  UNL1        0.0326
     25 H          -1.2553    0.9130   -2.0878 H       1  UNL1        0.0768
     26 H           2.5136    2.0156    1.6454 H       1  UNL1        0.0469
     27 H           1.0177    1.8516   -2.3382 H       1  UNL1        0.0287
     28 H           1.1508    0.1299   -2.6788 H       1  UNL1        0.0287
     29 H          -0.2159    2.4787    2.1575 H       1  UNL1        0.0270
     30 H           0.2021    0.8152    2.4461 H       1  UNL1        0.0270
     31 H          -1.9022    2.3479   -0.3403 H       1  UNL1        0.0633
     32 H           2.3816   -0.1542    2.3841 H       1  UNL1        0.0329
     33 H           3.5644   -0.4313    1.1218 H       1  UNL1        0.0329
     34 H          -1.7745    0.0061    1.6178 H       1  UNL1        0.0291
     35 H          -2.2625    1.6185    2.0440 H       1  UNL1        0.0291
     36 H           3.1908   -0.0774   -1.4266 H       1  UNL1        0.0427
     37 H           3.3276    1.3698   -2.4101 H       1  UNL1        0.0427
     38 H           4.9934    2.3459   -0.9198 H       1  UNL1        0.0391
     39 H           4.9603    0.8935    0.0892 H       1  UNL1        0.0391
     40 H           4.6605    2.4955    0.7963 H       1  UNL1        0.0391
     41 H           2.3780   -2.8928    1.7516 H       1  UNL1        0.0622
     42 H           0.6232   -4.4233    0.9432 H       1  UNL1        0.0655
     43 H          -4.1022    1.4707    1.5239 H       1  UNL1        0.0557
     44 H          -4.1312    2.7229    0.2467 H       1  UNL1        0.0557
     45 H          -1.3007   -4.6213   -0.1736 H       1  UNL1        0.2923
     46 H          -6.3809    1.7821    0.7659 H       1  UNL1        0.0252
     47 H          -5.9000    1.3651   -0.8955 H       1  UNL1        0.0252
     48 H          -5.7912    0.1495    0.3712 H       1  UNL1        0.0252
@<TRIPOS>BOND
     1     1     7    1
     2     1    17    1
     3     2    12    1
     4     2    22    1
     5     3    20    1
     6     3    45    1
     7     4     8    1
     8     4    15    1
     9     4    18    1
    10     5     6    1
    11     5     7    1
    12     5     9    1
    13     5    10    1
    14     6     8    1
    15     6    11    1
    16     6    24    1
    17     7    12    1
    18     7    25    1
    19     8    13    1
    20     8    26    1
    21     9    15    1
    22     9    27    1
    23     9    28    1
    24    10    16   ar
    25    10    17   ar
    26    11    14    1
    27    11    29    1
    28    11    30    1
    29    12    14    1
    30    12    31    1
    31    13    16    1
    32    13    32    1
    33    13    33    1
    34    14    34    1
    35    14    35    1
    36    15    36    1
    37    15    37    1
    38    16    19   ar
    39    17    20   ar
    40    18    38    1
    41    18    39    1
    42    18    40    1
    43    19    21   ar
    44    19    41    1
    45    20    21   ar
    46    21    42    1
    47    22    23    1
    48    22    43    1
    49    22    44    1
    50    23    46    1
    51    23    47    1
    52    23    48    1
@<TRIPOS>MOLECULE
5745818
 49 53 0 0 0
SMALL
GASTEIGER

@<TRIPOS>ATOM
      1 O           1.0543   -1.2788   -1.0629 O.3     1  UNL1       -0.4814
      2 O           0.3047   -2.8920    0.9783 O.3     1  UNL1       -0.3881
      3 O           3.3979   -0.1441    0.2654 O.3     1  UNL1       -0.4625
      4 O           5.5887    0.5438   -0.3505 O.3     1  UNL1       -0.3472
      5 N          -3.2789    1.5781   -0.7276 N.3     1  UNL1       -0.3018
      6 C          -1.2054   -0.4609   -0.7745 C.3     1  UNL1        0.0443
      7 C          -2.5542   -0.6579   -0.0803 C.3     1  UNL1       -0.0117
      8 C          -0.3536   -1.7035   -1.0963 C.3     1  UNL1        0.1360
      9 C          -2.9971    0.7356    0.4610 C.3     1  UNL1        0.0178
     10 C          -1.4334    0.4559   -1.9998 C.3     1  UNL1       -0.0266
     11 C          -0.2280    0.1922    0.1330 C.ar    1  UNL1        0.0113
     12 C          -2.5393   -1.7787    0.9612 C.3     1  UNL1       -0.0454
     13 C          -0.5600   -2.9222   -0.1587 C.3     1  UNL1        0.0928
     14 C          -1.9675    1.3456    1.4764 C.3     1  UNL1       -0.0113
     15 C          -2.0031   -3.0697    0.3304 C.3     1  UNL1       -0.0230
     16 C          -2.1312    1.7761   -1.6199 C.3     1  UNL1       -0.0002
     17 C          -0.5227    1.0847    1.1437 C.ar    1  UNL1       -0.0383
     18 C           1.0508   -0.2509   -0.1446 C.ar    1  UNL1        0.1666
     19 C          -3.9284    2.8437   -0.4042 C.3     1  UNL1       -0.0125
     20 C           0.5598    1.6120    1.8471 C.ar    1  UNL1       -0.0546
     21 C           2.1339    0.2687    0.5258 C.ar    1  UNL1        0.1653
     22 C           1.8782    1.2195    1.5251 C.ar    1  UNL1       -0.0159
     23 C           4.4620    0.7893    0.4980 C.3     1  UNL1        0.1906
     24 C           5.2723    0.7136   -1.7262 C.3     1  UNL1        0.0402
     25 H          -3.2889   -0.9787   -0.8360 H       1  UNL1        0.0326
     26 H          -0.5753   -2.0324   -2.1200 H       1  UNL1        0.0768
     27 H          -3.9481    0.6007    0.9936 H       1  UNL1        0.0469
     28 H          -2.0578   -0.0768   -2.7299 H       1  UNL1        0.0287
     29 H          -0.4910    0.6895   -2.5120 H       1  UNL1        0.0287
     30 H          -3.5611   -1.9532    1.3195 H       1  UNL1        0.0270
     31 H          -1.9478   -1.5083    1.8416 H       1  UNL1        0.0270
     32 H          -0.2735   -3.8263   -0.7077 H       1  UNL1        0.0630
     33 H          -2.1596    0.8870    2.4556 H       1  UNL1        0.0329
     34 H          -2.1271    2.4207    1.6051 H       1  UNL1        0.0329
     35 H          -2.0594   -3.8699    1.0781 H       1  UNL1        0.0291
     36 H          -2.6466   -3.3590   -0.5093 H       1  UNL1        0.0291
     37 H          -1.4027    2.4623   -1.1704 H       1  UNL1        0.0427
     38 H          -2.4684    2.2538   -2.5484 H       1  UNL1        0.0427
     39 H          -3.2574    3.5511    0.0933 H       1  UNL1        0.0391
     40 H          -4.8014    2.6825    0.2375 H       1  UNL1        0.0391
     41 H          -4.2993    3.3220   -1.3178 H       1  UNL1        0.0391
     42 H           0.3965    2.3133    2.6611 H       1  UNL1        0.0622
     43 H           0.0582   -2.1393    1.5392 H       1  UNL1        0.2099
     44 H           2.6799    1.6456    2.1233 H       1  UNL1        0.0655
     45 H           4.1462    1.8280    0.3366 H       1  UNL1        0.1017
     46 H           4.8063    0.6753    1.5311 H       1  UNL1        0.1017
     47 H           4.8977    1.7245   -1.9139 H       1  UNL1        0.0525
     48 H           4.5359   -0.0282   -2.0492 H       1  UNL1        0.0525
     49 H           6.1863    0.5676   -2.3081 H       1  UNL1        0.0525
@<TRIPOS>BOND
     1     1     8    1
     2     1    18    1
     3     2    13    1
     4     2    43    1
     5     3    21    1
     6     3    23    1
     7     4    23    1
     8     4    24    1
     9     5     9    1
    10     5    16    1
    11     5    19    1
    12     6     7    1
    13     6     8    1
    14     6    10    1
    15     6    11    1
    16     7     9    1
    17     7    12    1
    18     7    25    1
    19     8    13    1
    20     8    26    1
    21     9    14    1
    22     9    27    1
    23    10    16    1
    24    10    28    1
    25    10    29    1
    26    11    17   ar
    27    11    18   ar
    28    12    15    1
    29    12    30    1
    30    12    31    1
    31    13    15    1
    32    13    32    1
    33    14    17    1
    34    14    33    1
    35    14    34    1
    36    15    35    1
    37    15    36    1
    38    16    37    1
    39    16    38    1
    40    17    20   ar
    41    18    21   ar
    42    19    39    1
    43    19    40    1
    44    19    41    1
    45    20    22   ar
    46    20    42    1
    47    21    22   ar
    48    22    44    1
    49    23    45    1
    50    23    46    1
    51    24    47    1
    52    24    48    1
    53    24    49    1
@<TRIPOS>MOLECULE
53327324
 57 61 0 0 0
SMALL
GASTEIGER

@<TRIPOS>ATOM
      1 O          -0.5717   -0.3248    1.1097 O.3     1  UNL1       -0.4811
      2 O          -1.5552   -2.0298   -0.6063 O.3     1  UNL1       -0.3666
      3 O          -1.9402    2.2221    0.8396 O.3     1  UNL1       -0.5033
      4 O          -4.0102   -1.0998    0.3598 O.3     1  UNL1       -0.3752
      5 O          -4.8734    1.3298   -0.6817 O.3     1  UNL1       -0.3807
      6 N           4.6276   -0.3003    0.4127 N.3     1  UNL1       -0.3015
      7 C           1.7590   -0.7286    0.5292 C.3     1  UNL1        0.0480
      8 C           2.6256   -1.2396   -0.6319 C.3     1  UNL1        0.0064
      9 C           3.7926   -0.2146   -0.8099 C.3     1  UNL1        0.0213
     10 C           0.3750   -1.3868    0.7376 C.3     1  UNL1        0.1401
     11 C           2.6027   -0.6913    1.8186 C.3     1  UNL1       -0.0263
     12 C           1.2782    0.6436    0.1893 C.ar    1  UNL1        0.0116
     13 C           3.2851    1.2259   -1.1624 C.3     1  UNL1       -0.0110
     14 C           3.9233    0.0766    1.6423 C.3     1  UNL1       -0.0001
     15 C          -0.1440   -2.1899   -0.4837 C.3     1  UNL1        0.1145
     16 C           1.9700    1.5994   -0.5329 C.ar    1  UNL1       -0.0383
     17 C           1.8050   -1.4797   -1.8733 C.2     1  UNL1       -0.0799
     18 C          -0.0239    0.8210    0.5993 C.ar    1  UNL1        0.1663
     19 C           0.5321   -1.8958   -1.7965 C.2     1  UNL1       -0.0557
     20 C           5.9037    0.3975    0.2945 C.3     1  UNL1       -0.0124
     21 C           1.3386    2.8286   -0.7302 C.ar    1  UNL1       -0.0546
     22 C          -0.6645    2.0277    0.4237 C.ar    1  UNL1        0.1588
     23 C           0.0369    3.0454   -0.2357 C.ar    1  UNL1       -0.0162
     24 C          -2.2464   -2.7170    0.4264 C.3     1  UNL1        0.0719
     25 C          -3.7368   -2.4920    0.2588 C.3     1  UNL1        0.0711
     26 C          -5.3969   -0.8294    0.2099 C.3     1  UNL1        0.0711
     27 C          -5.6251    0.6654    0.3266 C.3     1  UNL1        0.0706
     28 C          -5.0671    2.7364   -0.6335 C.3     1  UNL1        0.0365
     29 H           3.0626   -2.2147   -0.3683 H       1  UNL1        0.0368
     30 H           4.4146   -0.5583   -1.6481 H       1  UNL1        0.0472
     31 H           0.4088   -2.0695    1.5968 H       1  UNL1        0.0772
     32 H           2.0419   -0.2443    2.6497 H       1  UNL1        0.0287
     33 H           2.8342   -1.7227    2.1174 H       1  UNL1        0.0287
     34 H           4.0353    1.9866   -0.9253 H       1  UNL1        0.0329
     35 H           3.1418    1.2639   -2.2508 H       1  UNL1        0.0329
     36 H           4.5561   -0.1448    2.5110 H       1  UNL1        0.0427
     37 H           3.7321    1.1565    1.6698 H       1  UNL1        0.0427
     38 H           0.0693   -3.2545   -0.3061 H       1  UNL1        0.0678
     39 H           2.2699   -1.3528   -2.8461 H       1  UNL1        0.0573
     40 H          -0.0120   -2.1023   -2.7137 H       1  UNL1        0.0596
     41 H           6.4345    0.0899   -0.6131 H       1  UNL1        0.0391
     42 H           6.5550    0.1380    1.1368 H       1  UNL1        0.0391
     43 H           5.7950    1.4865    0.2807 H       1  UNL1        0.0391
     44 H           1.8345    3.6174   -1.2895 H       1  UNL1        0.0622
     45 H          -0.4333    4.0109   -0.4085 H       1  UNL1        0.0655
     46 H          -1.9457   -2.3558    1.4143 H       1  UNL1        0.0583
     47 H          -2.0343   -3.7904    0.3629 H       1  UNL1        0.0583
     48 H          -2.2071    3.1308    0.6183 H       1  UNL1        0.2923
     49 H          -4.0550   -2.8450   -0.7291 H       1  UNL1        0.0583
     50 H          -4.2866   -3.0379    1.0334 H       1  UNL1        0.0583
     51 H          -5.9678   -1.3557    0.9827 H       1  UNL1        0.0583
     52 H          -5.7205   -1.1751   -0.7788 H       1  UNL1        0.0583
     53 H          -6.6907    0.8914    0.2103 H       1  UNL1        0.0582
     54 H          -5.2844    1.0157    1.3079 H       1  UNL1        0.0582
     55 H          -6.1142    2.9848   -0.8316 H       1  UNL1        0.0524
     56 H          -4.7637    3.1353    0.3393 H       1  UNL1        0.0524
     57 H          -4.4469    3.1960   -1.4078 H       1  UNL1        0.0524
@<TRIPOS>BOND
     1     1    10    1
     2     1    18    1
     3     2    15    1
     4     2    24    1
     5     3    22    1
     6     3    48    1
     7     4    25    1
     8     4    26    1
     9     5    27    1
    10     5    28    1
    11     6     9    1
    12     6    14    1
    13     6    20    1
    14     7     8    1
    15     7    10    1
    16     7    11    1
    17     7    12    1
    18     8     9    1
    19     8    17    1
    20     8    29    1
    21     9    13    1
    22     9    30    1
    23    10    15    1
    24    10    31    1
    25    11    14    1
    26    11    32    1
    27    11    33    1
    28    12    16   ar
    29    12    18   ar
    30    13    16    1
    31    13    34    1
    32    13    35    1
    33    14    36    1
    34    14    37    1
    35    15    19    1
    36    15    38    1
    37    16    21   ar
    38    17    19    2
    39    17    39    1
    40    18    22   ar
    41    19    40    1
    42    20    41    1
    43    20    42    1
    44    20    43    1
    45    21    23   ar
    46    21    44    1
    47    22    23   ar
    48    23    45    1
    49    24    25    1
    50    24    46    1
    51    24    47    1
    52    25    49    1
    53    25    50    1
    54    26    27    1
    55    26    51    1
    56    26    52    1
    57    27    53    1
    58    27    54    1
    59    28    55    1
    60    28    56    1
    61    28    57    1
@<TRIPOS>MOLECULE
5319433
 35 36 0 0 0
SMALL
GASTEIGER

@<TRIPOS>ATOM
      1 O          -1.5527   -0.9904   -0.5442 O.2     1  UNL1       -0.4218
      2 O           2.2950    1.8616   -0.3230 O.3     1  UNL1       -0.4947
      3 O           2.7435   -0.9160    2.1025 O.2     1  UNL1       -0.3005
      4 O          -3.4048   -2.3341   -0.6392 O.2     1  UNL1       -0.2452
      5 C           1.8637   -1.6610   -0.0504 C.3     1  UNL1        0.0246
      6 C           1.1941   -0.6629   -1.0420 C.3     1  UNL1       -0.0091
      7 C           0.3767    0.4305   -0.4373 C.ar    1  UNL1        0.0380
      8 C           0.8264   -2.4502    0.7604 C.3     1  UNL1       -0.0530
      9 C           2.7338   -2.6550   -0.8395 C.3     1  UNL1       -0.0530
     10 C          -0.9841    0.2522   -0.1972 C.ar    1  UNL1        0.1457
     11 C           2.8064   -0.8994    0.8771 C.2     1  UNL1        0.1262
     12 C           0.9669    1.6480   -0.1050 C.ar    1  UNL1        0.1268
     13 C          -1.7667    1.2572    0.3650 C.ar    1  UNL1        0.0181
     14 C           0.1974    2.6677    0.4600 C.ar    1  UNL1       -0.0189
     15 C          -1.1670    2.4744    0.6954 C.ar    1  UNL1       -0.0476
     16 C          -3.1798    1.0032    0.5878 C.ar    1  UNL1       -0.0443
     17 C          -3.7107   -0.1765    0.2568 C.ar    1  UNL1        0.0236
     18 C          -2.9026   -1.2564   -0.3395 C.ar    1  UNL1        0.3372
     19 C           2.6643    2.4071   -1.5877 C.3     1  UNL1        0.0788
     20 H           0.5761   -1.2293   -1.7530 H       1  UNL1        0.0325
     21 H           1.9725   -0.2294   -1.6820 H       1  UNL1        0.0325
     22 H           1.3155   -3.1949    1.4001 H       1  UNL1        0.0239
     23 H           0.1334   -2.9880    0.1049 H       1  UNL1        0.0239
     24 H           0.2474   -1.8035    1.4276 H       1  UNL1        0.0239
     25 H           3.5017   -2.1358   -1.4250 H       1  UNL1        0.0239
     26 H           3.2546   -3.3471   -0.1674 H       1  UNL1        0.0239
     27 H           2.1270   -3.2486   -1.5323 H       1  UNL1        0.0239
     28 H           3.6068   -0.3280    0.3743 H       1  UNL1        0.1032
     29 H           0.6550    3.6183    0.7215 H       1  UNL1        0.0654
     30 H          -1.7479    3.2807    1.1362 H       1  UNL1        0.0626
     31 H          -3.7925    1.7835    1.0252 H       1  UNL1        0.0627
     32 H          -4.7646   -0.3736    0.4202 H       1  UNL1        0.0689
     33 H           3.7257    2.2034   -1.7525 H       1  UNL1        0.0660
     34 H           2.5133    3.4909   -1.5759 H       1  UNL1        0.0660
     35 H           2.0896    1.9668   -2.4090 H       1  UNL1        0.0660
@<TRIPOS>BOND
     1     1    10   ar
     2     1    18   ar
     3     2    12    1
     4     2    19    1
     5     3    11    2
     6     4    18    2
     7     5     6    1
     8     5     8    1
     9     5     9    1
    10     5    11    1
    11     6     7    1
    12     6    20    1
    13     6    21    1
    14     7    10   ar
    15     7    12   ar
    16     8    22    1
    17     8    23    1
    18     8    24    1
    19     9    25    1
    20     9    26    1
    21     9    27    1
    22    10    13   ar
    23    11    28    1
    24    12    14   ar
    25    13    15   ar
    26    13    16   ar
    27    14    15   ar
    28    14    29    1
    29    15    30    1
    30    16    17   ar
    31    16    31    1
    32    17    18   ar
    33    17    32    1
    34    19    33    1
    35    19    34    1
    36    19    35    1
@<TRIPOS>MOLECULE
5462506
 46 50 0 0 0
SMALL
GASTEIGER

@<TRIPOS>ATOM
      1 O          -1.4251    0.6686    1.3931 O.3     1  UNL1       -0.4811
      2 O          -3.1513   -0.9141    0.2377 O.3     1  UNL1       -0.3691
      3 O          -1.9450    3.4132    0.6009 O.3     1  UNL1       -0.5033
      4 N           3.3405   -1.2408    0.3153 N.3     1  UNL1       -0.3015
      5 C           0.5384   -0.6232    0.7546 C.3     1  UNL1        0.0480
      6 C           1.0074   -1.6322   -0.3048 C.3     1  UNL1        0.0064
      7 C           2.3952   -1.1320   -0.8221 C.3     1  UNL1        0.0213
      8 C          -0.9321   -0.7068    1.2264 C.3     1  UNL1        0.1401
      9 C           1.5411   -0.6085    1.9253 C.3     1  UNL1       -0.0263
     10 C           0.4683    0.7267    0.1207 C.ar    1  UNL1        0.0116
     11 C           2.3195    0.2872   -1.4835 C.3     1  UNL1       -0.0110
     12 C           2.9919   -0.3962    1.4620 C.3     1  UNL1       -0.0001
     13 C          -1.8618   -1.5197    0.2879 C.3     1  UNL1        0.1144
     14 C           1.3045    1.2127   -0.8683 C.ar    1  UNL1       -0.0383
     15 C          -0.0303   -1.8305   -1.3801 C.2     1  UNL1       -0.0799
     16 C          -0.6307    1.4223    0.5721 C.ar    1  UNL1        0.1663
     17 C          -1.3410   -1.7581   -1.1045 C.2     1  UNL1       -0.0557
     18 C           4.7367   -1.0650   -0.0711 C.3     1  UNL1       -0.0124
     19 C           1.0706    2.5135   -1.3173 C.ar    1  UNL1       -0.0546
     20 C          -0.8770    2.7103    0.1502 C.ar    1  UNL1        0.1588
     21 C          -0.0024    3.2628   -0.7943 C.ar    1  UNL1       -0.0162
     22 C          -4.0838   -1.7379   -0.4457 C.3     1  UNL1        0.0458
     23 C          -5.4336   -1.0525   -0.4544 C.3     1  UNL1       -0.0415
     24 H           1.1499   -2.6197    0.1598 H       1  UNL1        0.0368
     25 H           2.7383   -1.8359   -1.5930 H       1  UNL1        0.0472
     26 H          -0.9915   -1.1607    2.2241 H       1  UNL1        0.0772
     27 H           1.4790   -1.5695    2.4536 H       1  UNL1        0.0287
     28 H           1.2868    0.1675    2.6587 H       1  UNL1        0.0287
     29 H           2.0275    0.1429   -2.5326 H       1  UNL1        0.0329
     30 H           3.2986    0.7757   -1.5022 H       1  UNL1        0.0329
     31 H           3.1579    0.6639    1.2335 H       1  UNL1        0.0427
     32 H           3.6499   -0.6341    2.3073 H       1  UNL1        0.0427
     33 H          -1.9748   -2.5142    0.7436 H       1  UNL1        0.0678
     34 H           0.2957   -2.0775   -2.3860 H       1  UNL1        0.0573
     35 H          -1.9907   -1.9639   -1.9447 H       1  UNL1        0.0596
     36 H           4.9762   -0.0336   -0.3480 H       1  UNL1        0.0391
     37 H           4.9950   -1.7191   -0.9110 H       1  UNL1        0.0391
     38 H           5.3959   -1.3495    0.7569 H       1  UNL1        0.0391
     39 H           1.6962    2.9481   -2.0924 H       1  UNL1        0.0622
     40 H          -0.1702    4.2723   -1.1625 H       1  UNL1        0.0655
     41 H          -3.8341   -1.9031   -1.4938 H       1  UNL1        0.0557
     42 H          -4.1709   -2.7060    0.0607 H       1  UNL1        0.0557
     43 H          -2.4311    2.8581    1.2353 H       1  UNL1        0.2923
     44 H          -6.1823   -1.6656   -0.9642 H       1  UNL1        0.0252
     45 H          -5.7741   -0.8594    0.5683 H       1  UNL1        0.0252
     46 H          -5.3704   -0.0815   -0.9570 H       1  UNL1        0.0252
@<TRIPOS>BOND
     1     1     8    1
     2     1    16    1
     3     2    13    1
     4     2    22    1
     5     3    20    1
     6     3    43    1
     7     4     7    1
     8     4    12    1
     9     4    18    1
    10     5     6    1
    11     5     8    1
    12     5     9    1
    13     5    10    1
    14     6     7    1
    15     6    15    1
    16     6    24    1
    17     7    11    1
    18     7    25    1
    19     8    13    1
    20     8    26    1
    21     9    12    1
    22     9    27    1
    23     9    28    1
    24    10    14   ar
    25    10    16   ar
    26    11    14    1
    27    11    29    1
    28    11    30    1
    29    12    31    1
    30    12    32    1
    31    13    17    1
    32    13    33    1
    33    14    19   ar
    34    15    17    2
    35    15    34    1
    36    16    20   ar
    37    17    35    1
    38    18    36    1
    39    18    37    1
    40    18    38    1
    41    19    21   ar
    42    19    39    1
    43    20    21   ar
    44    21    40    1
    45    22    23    1
    46    22    41    1
    47    22    42    1
    48    23    44    1
    49    23    45    1
    50    23    46    1
@<TRIPOS>MOLECULE
5491585
 48 52 0 0 0
SMALL
GASTEIGER

@<TRIPOS>ATOM
      1 O          -0.9562   -0.7866    1.3357 O.3     1  UNL1       -0.4810
      2 O          -1.5288   -2.9209   -0.0558 O.3     1  UNL1       -0.3841
      3 O          -2.9179    1.2828    0.7879 O.3     1  UNL1       -0.4221
      4 O          -3.5024    0.0228   -1.0930 O.2     1  UNL1       -0.2504
      5 N           4.0573    0.3816    0.3261 N.3     1  UNL1       -0.3015
      6 C           1.3872   -0.7017    0.6775 C.3     1  UNL1        0.0480
      7 C           2.3251   -1.1611   -0.4492 C.3     1  UNL1        0.0064
      8 C           3.1978    0.0747   -0.8429 C.3     1  UNL1        0.0213
      9 C           0.2143   -1.6336    1.0621 C.3     1  UNL1        0.1399
     10 C           2.2263   -0.2645    1.8944 C.3     1  UNL1       -0.0263
     11 C           0.5742    0.4454    0.1748 C.ar    1  UNL1        0.0116
     12 C           2.3416    1.2788   -1.3663 C.3     1  UNL1       -0.0110
     13 C           3.3114    0.7621    1.5298 C.3     1  UNL1       -0.0001
     14 C           0.9905    1.4168   -0.7176 C.ar    1  UNL1       -0.0383
     15 C          -0.1194   -2.7158    0.0022 C.3     1  UNL1        0.1110
     16 C           1.5597   -1.7798   -1.5910 C.2     1  UNL1       -0.0799
     17 C          -0.7212    0.3649    0.6340 C.ar    1  UNL1        0.1673
     18 C           0.4315   -2.4732   -1.3779 C.2     1  UNL1       -0.0559
     19 C           5.1179    1.3395    0.0315 C.3     1  UNL1       -0.0124
     20 C           0.0703    2.4125   -1.0498 C.ar    1  UNL1       -0.0545
     21 C          -1.6443    1.3401    0.3270 C.ar    1  UNL1        0.1733
     22 C          -1.2324    2.3828   -0.5128 C.ar    1  UNL1       -0.0153
     23 C          -3.8066    0.5660   -0.0398 C.2     1  UNL1        0.3122
     24 C          -5.1878    0.5718    0.5753 C.3     1  UNL1        0.0425
     25 C          -6.1881   -0.2054   -0.2623 C.3     1  UNL1       -0.0552
     26 H           2.9959   -1.9498   -0.0758 H       1  UNL1        0.0368
     27 H           3.8651   -0.2337   -1.6596 H       1  UNL1        0.0472
     28 H           0.4278   -2.1519    2.0059 H       1  UNL1        0.0772
     29 H           2.7126   -1.1513    2.3230 H       1  UNL1        0.0287
     30 H           1.5926    0.1565    2.6856 H       1  UNL1        0.0287
     31 H           2.1672    1.1133   -2.4382 H       1  UNL1        0.0329
     32 H           2.8858    2.2249   -1.2868 H       1  UNL1        0.0329
     33 H           2.8599    1.7553    1.4141 H       1  UNL1        0.0427
     34 H           4.0000    0.8358    2.3809 H       1  UNL1        0.0427
     35 H           0.3184   -3.6665    0.3340 H       1  UNL1        0.0675
     36 H           1.9553   -1.6957   -2.5983 H       1  UNL1        0.0573
     37 H          -0.0665   -2.9427   -2.2214 H       1  UNL1        0.0596
     38 H           4.7431    2.3548   -0.1312 H       1  UNL1        0.0391
     39 H           5.6864    1.0331   -0.8534 H       1  UNL1        0.0391
     40 H           5.8333    1.3772    0.8609 H       1  UNL1        0.0391
     41 H           0.3420    3.2019   -1.7455 H       1  UNL1        0.0622
     42 H          -1.9347    3.1659   -0.7894 H       1  UNL1        0.0656
     43 H          -1.8362   -3.0936    0.8506 H       1  UNL1        0.2104
     44 H          -5.5192    1.6111    0.6687 H       1  UNL1        0.0375
     45 H          -5.1229    0.1240    1.5723 H       1  UNL1        0.0375
     46 H          -5.8814   -1.2510   -0.3710 H       1  UNL1        0.0235
     47 H          -7.1762   -0.1854    0.2078 H       1  UNL1        0.0235
     48 H          -6.2774    0.2231   -1.2661 H       1  UNL1        0.0235
@<TRIPOS>BOND
     1     1     9    1
     2     1    17    1
     3     2    15    1
     4     2    43    1
     5     3    21    1
     6     3    23    1
     7     4    23    2
     8     5     8    1
     9     5    13    1
    10     5    19    1
    11     6     7    1
    12     6     9    1
    13     6    10    1
    14     6    11    1
    15     7     8    1
    16     7    16    1
    17     7    26    1
    18     8    12    1
    19     8    27    1
    20     9    15    1
    21     9    28    1
    22    10    13    1
    23    10    29    1
    24    10    30    1
    25    11    14   ar
    26    11    17   ar
    27    12    14    1
    28    12    31    1
    29    12    32    1
    30    13    33    1
    31    13    34    1
    32    14    20   ar
    33    15    18    1
    34    15    35    1
    35    16    18    2
    36    16    36    1
    37    17    21   ar
    38    18    37    1
    39    19    38    1
    40    19    39    1
    41    19    40    1
    42    20    22   ar
    43    20    41    1
    44    21    22   ar
    45    22    42    1
    46    23    24    1
    47    24    25    1
    48    24    44    1
    49    24    45    1
    50    25    46    1
    51    25    47    1
    52    25    48    1
@<TRIPOS>MOLECULE
5745697
 55 60 0 0 0
SMALL
GASTEIGER

@<TRIPOS>ATOM
      1 O           0.1350    0.8131    1.3108 O.3     1  UNL1       -0.4814
      2 O           0.1276    2.3501   -0.9182 O.3     1  UNL1       -0.3881
      3 O           2.2002   -1.0501    0.4122 O.3     1  UNL1       -0.4837
      4 N          -4.7594   -0.7685    0.5399 N.3     1  UNL1       -0.3018
      5 C          -2.2121    0.6191    0.7528 C.3     1  UNL1        0.0443
      6 C          -3.3551    1.1047   -0.1404 C.3     1  UNL1       -0.0117
      7 C          -1.0868    1.6078    1.1126 C.3     1  UNL1        0.1360
      8 C          -4.1083   -0.1626   -0.6479 C.3     1  UNL1        0.0178
      9 C          -2.8377   -0.0687    1.9896 C.3     1  UNL1       -0.0266
     10 C          -1.3596   -0.3664    0.0408 C.ar    1  UNL1        0.0113
     11 C          -2.8962    2.0649   -1.2397 C.3     1  UNL1       -0.0454
     12 C          -0.8230    2.7328    0.0774 C.3     1  UNL1        0.0928
     13 C          -3.1807   -1.1325   -1.4618 C.3     1  UNL1       -0.0113
     14 C          -2.0943    3.2181   -0.6237 C.3     1  UNL1       -0.0230
     15 C          -3.8317   -1.1796    1.5998 C.3     1  UNL1       -0.0002
     16 C          -1.7724   -1.2437   -0.9415 C.ar    1  UNL1       -0.0383
     17 C          -0.0506   -0.2637    0.4708 C.ar    1  UNL1        0.1666
     18 C          -5.6987   -1.8346    0.2094 C.3     1  UNL1       -0.0125
     19 C          -0.8087   -2.1167   -1.4451 C.ar    1  UNL1       -0.0546
     20 C           0.9120   -1.1261   -0.0007 C.ar    1  UNL1        0.1627
     21 C           0.5182   -2.0687   -0.9623 C.ar    1  UNL1       -0.0160
     22 C           3.2125   -1.4189   -0.5276 C.3     1  UNL1        0.1148
     23 C           4.4678   -0.6567   -0.2195 C.ar    1  UNL1       -0.0104
     24 C           4.6844    0.5817   -0.8134 C.ar    1  UNL1       -0.0554
     25 C           5.4029   -1.1955    0.6573 C.ar    1  UNL1       -0.0554
     26 C           5.8511    1.2905   -0.5269 C.ar    1  UNL1       -0.0614
     27 C           6.5696   -0.4865    0.9437 C.ar    1  UNL1       -0.0614
     28 C           6.7937    0.7565    0.3516 C.ar    1  UNL1       -0.0617
     29 H          -4.0534    1.6905    0.4786 H       1  UNL1        0.0326
     30 H          -1.3272    2.0886    2.0698 H       1  UNL1        0.0768
     31 H          -4.9100    0.1715   -1.3200 H       1  UNL1        0.0469
     32 H          -3.3676    0.6869    2.5854 H       1  UNL1        0.0287
     33 H          -2.0698   -0.4969    2.6468 H       1  UNL1        0.0287
     34 H          -3.7751    2.4742   -1.7526 H       1  UNL1        0.0270
     35 H          -2.3047    1.5536   -2.0058 H       1  UNL1        0.0270
     36 H          -0.3589    3.5758    0.6019 H       1  UNL1        0.0630
     37 H          -3.1149   -0.7425   -2.4863 H       1  UNL1        0.0329
     38 H          -3.6234   -2.1302   -1.5418 H       1  UNL1        0.0329
     39 H          -1.8299    3.9215   -1.4223 H       1  UNL1        0.0291
     40 H          -2.7249    3.7574    0.0934 H       1  UNL1        0.0291
     41 H          -3.2804   -2.0815    1.3060 H       1  UNL1        0.0427
     42 H          -4.4003   -1.4484    2.4990 H       1  UNL1        0.0427
     43 H          -5.2023   -2.7460   -0.1386 H       1  UNL1        0.0391
     44 H          -6.4058   -1.5079   -0.5609 H       1  UNL1        0.0391
     45 H          -6.2977   -2.0962    1.0890 H       1  UNL1        0.0391
     46 H          -1.0685   -2.8344   -2.2187 H       1  UNL1        0.0622
     47 H          -0.2532    1.6389   -1.4579 H       1  UNL1        0.2099
     48 H           1.2202   -2.7910   -1.3716 H       1  UNL1        0.0655
     49 H           2.9171   -1.1926   -1.5613 H       1  UNL1        0.0748
     50 H           3.3965   -2.4981   -0.4566 H       1  UNL1        0.0748
     51 H           3.9555    1.0088   -1.4967 H       1  UNL1        0.0621
     52 H           5.2376   -2.1617    1.1258 H       1  UNL1        0.0621
     53 H           6.0252    2.2587   -0.9871 H       1  UNL1        0.0618
     54 H           7.3033   -0.9019    1.6283 H       1  UNL1        0.0618
     55 H           7.7019    1.3086    0.5751 H       1  UNL1        0.0618
@<TRIPOS>BOND
     1     1     7    1
     2     1    17    1
     3     2    12    1
     4     2    47    1
     5     3    20    1
     6     3    22    1
     7     4     8    1
     8     4    15    1
     9     4    18    1
    10     5     6    1
    11     5     7    1
    12     5     9    1
    13     5    10    1
    14     6     8    1
    15     6    11    1
    16     6    29    1
    17     7    12    1
    18     7    30    1
    19     8    13    1
    20     8    31    1
    21     9    15    1
    22     9    32    1
    23     9    33    1
    24    10    16   ar
    25    10    17   ar
    26    11    14    1
    27    11    34    1
    28    11    35    1
    29    12    14    1
    30    12    36    1
    31    13    16    1
    32    13    37    1
    33    13    38    1
    34    14    39    1
    35    14    40    1
    36    15    41    1
    37    15    42    1
    38    16    19   ar
    39    17    20   ar
    40    18    43    1
    41    18    44    1
    42    18    45    1
    43    19    21   ar
    44    19    46    1
    45    20    21   ar
    46    21    48    1
    47    22    23    1
    48    22    49    1
    49    22    50    1
    50    23    24   ar
    51    23    25   ar
    52    24    26   ar
    53    24    51    1
    54    25    27   ar
    55    25    52    1
    56    26    28   ar
    57    26    53    1
    58    27    28   ar
    59    27    54    1
    60    28    55    1
@<TRIPOS>MOLECULE
118701641
 45 49 0 0 0
SMALL
GASTEIGER

@<TRIPOS>ATOM
      1 O           1.4238   -0.6463    1.0345 O.3     1  UNL1       -0.4799
      2 O           2.9970    0.6038   -0.6334 O.3     1  UNL1       -0.4536
      3 O           1.6334   -3.5101    0.6041 O.3     1  UNL1       -0.5033
      4 O           4.0406    1.9871    0.8944 O.2     1  UNL1       -0.2511
      5 N          -3.3422    1.4811    0.5073 N.3     1  UNL1       -0.3015
      6 C          -0.5467    0.7004    0.5493 C.3     1  UNL1        0.0491
      7 C          -1.1432    1.5822   -0.5583 C.3     1  UNL1        0.0064
      8 C          -2.6284    1.1310   -0.7445 C.3     1  UNL1        0.0213
      9 C           0.9876    0.7273    0.7422 C.3     1  UNL1        0.1509
     10 C          -1.3178    0.9383    1.8627 C.3     1  UNL1       -0.0263
     11 C          -0.6704   -0.7278    0.1319 C.ar    1  UNL1        0.0116
     12 C          -2.7556   -0.3698   -1.1786 C.3     1  UNL1       -0.0110
     13 C          -2.8386    0.7839    1.6948 C.3     1  UNL1       -0.0001
     14 C          -1.6996   -1.2791   -0.6101 C.ar    1  UNL1       -0.0383
     15 C           1.7748    1.3161   -0.4576 C.3     1  UNL1        0.1587
     16 C          -0.3100    1.5361   -1.8137 C.2     1  UNL1       -0.0788
     17 C           0.4512   -1.4410    0.4906 C.ar    1  UNL1        0.1664
     18 C           1.0227    1.3945   -1.7596 C.2     1  UNL1       -0.0439
     19 C          -4.7931    1.3694    0.3992 C.3     1  UNL1       -0.0124
     20 C          -1.6259   -2.6459   -0.8836 C.ar    1  UNL1       -0.0546
     21 C           0.5427   -2.7922    0.2394 C.ar    1  UNL1        0.1588
     22 C          -0.5197   -3.3995   -0.4423 C.ar    1  UNL1       -0.0162
     23 C           4.0541    1.0491    0.1087 C.2     1  UNL1        0.3046
     24 C           5.2634    0.2115   -0.1775 C.3     1  UNL1        0.0333
     25 H          -1.1421    2.6347   -0.2365 H       1  UNL1        0.0368
     26 H          -3.0660    1.7430   -1.5455 H       1  UNL1        0.0472
     27 H           1.2524    1.3135    1.6317 H       1  UNL1        0.0783
     28 H          -1.1057    1.9567    2.2154 H       1  UNL1        0.0287
     29 H          -0.9783    0.2573    2.6538 H       1  UNL1        0.0287
     30 H          -2.6526   -0.4029   -2.2718 H       1  UNL1        0.0329
     31 H          -3.7478   -0.7720   -0.9520 H       1  UNL1        0.0329
     32 H          -3.1035   -0.2803    1.6669 H       1  UNL1        0.0427
     33 H          -3.3165    1.1952    2.5929 H       1  UNL1        0.0427
     34 H           1.9931    2.3697   -0.2282 H       1  UNL1        0.0817
     35 H          -0.7973    1.6626   -2.7755 H       1  UNL1        0.0574
     36 H           1.5933    1.4125   -2.6838 H       1  UNL1        0.0607
     37 H          -5.1629    1.9153   -0.4756 H       1  UNL1        0.0391
     38 H          -5.2727    1.8244    1.2733 H       1  UNL1        0.0391
     39 H          -5.1376    0.3327    0.3324 H       1  UNL1        0.0391
     40 H          -2.4064   -3.1334   -1.4617 H       1  UNL1        0.0622
     41 H          -0.4858   -4.4617   -0.6740 H       1  UNL1        0.0655
     42 H           1.5067   -4.4348    0.3304 H       1  UNL1        0.2923
     43 H           5.0639   -0.8294    0.0893 H       1  UNL1        0.0342
     44 H           6.1039    0.5703    0.4235 H       1  UNL1        0.0342
     45 H           5.5298    0.2944   -1.2341 H       1  UNL1        0.0342
@<TRIPOS>BOND
     1     1     9    1
     2     1    17    1
     3     2    15    1
     4     2    23    1
     5     3    21    1
     6     3    42    1
     7     4    23    2
     8     5     8    1
     9     5    13    1
    10     5    19    1
    11     6     7    1
    12     6     9    1
    13     6    10    1
    14     6    11    1
    15     7     8    1
    16     7    16    1
    17     7    25    1
    18     8    12    1
    19     8    26    1
    20     9    15    1
    21     9    27    1
    22    10    13    1
    23    10    28    1
    24    10    29    1
    25    11    14   ar
    26    11    17   ar
    27    12    14    1
    28    12    30    1
    29    12    31    1
    30    13    32    1
    31    13    33    1
    32    14    20   ar
    33    15    18    1
    34    15    34    1
    35    16    18    2
    36    16    35    1
    37    17    21   ar
    38    18    36    1
    39    19    37    1
    40    19    38    1
    41    19    39    1
    42    20    22   ar
    43    20    40    1
    44    21    22   ar
    45    22    41    1
    46    23    24    1
    47    24    43    1
    48    24    44    1
    49    24    45    1
@<TRIPOS>MOLECULE
124037289
 43 47 0 0 0
SMALL
GASTEIGER

@<TRIPOS>ATOM
      1 O          -1.9130   -0.0810   -1.0805 O.3     1  UNL1       -0.4811
      2 O          -3.1214    1.6256    0.4835 O.3     1  UNL1       -0.3721
      3 O          -2.8853   -2.7604   -0.5272 O.3     1  UNL1       -0.5033
      4 N           3.2390    0.7283   -0.5143 N.3     1  UNL1       -0.3015
      5 C           0.3376    0.7170   -0.6008 C.3     1  UNL1        0.0480
      6 C           1.1304    1.4642    0.4825 C.3     1  UNL1        0.0064
      7 C           2.4384    0.6449    0.7312 C.3     1  UNL1        0.0213
      8 C          -1.1309    1.1405   -0.8383 C.3     1  UNL1        0.1401
      9 C           1.1644    0.6740   -1.9010 C.3     1  UNL1       -0.0263
     10 C           0.0694   -0.6695   -0.1158 C.ar    1  UNL1        0.0116
     11 C           2.1541   -0.8116    1.2361 C.3     1  UNL1       -0.0110
     12 C           2.5861    0.1300   -1.6830 C.3     1  UNL1       -0.0001
     13 C          -1.7510    1.9779    0.3107 C.3     1  UNL1        0.1140
     14 C           0.9027   -1.4356    0.6794 C.ar    1  UNL1       -0.0383
     15 C           0.2958    1.7053    1.7144 C.2     1  UNL1       -0.0799
     16 C          -1.1960   -1.0765   -0.4737 C.ar    1  UNL1        0.1663
     17 C          -1.0255    1.9202    1.6287 C.2     1  UNL1       -0.0557
     18 C           4.6057    0.2409   -0.3599 C.3     1  UNL1       -0.0124
     19 C           0.4629   -2.7179    1.0123 C.ar    1  UNL1       -0.0546
     20 C          -1.6485   -2.3403   -0.1644 C.ar    1  UNL1        0.1588
     21 C          -0.7971   -3.1722    0.5741 C.ar    1  UNL1       -0.0162
     22 C          -3.9175    2.0961   -0.5941 C.3     1  UNL1        0.0374
     23 H           1.4150    2.4613    0.1135 H       1  UNL1        0.0368
     24 H           3.0109    1.1589    1.5158 H       1  UNL1        0.0472
     25 H          -1.2091    1.7305   -1.7609 H       1  UNL1        0.0772
     26 H           1.2371    1.6927   -2.3053 H       1  UNL1        0.0287
     27 H           0.6678    0.0680   -2.6698 H       1  UNL1        0.0287
     28 H           2.0290   -0.7601    2.3263 H       1  UNL1        0.0329
     29 H           3.0065   -1.4739    1.0563 H       1  UNL1        0.0329
     30 H           2.5571   -0.9635   -1.5994 H       1  UNL1        0.0427
     31 H           3.1702    0.3530   -2.5847 H       1  UNL1        0.0427
     32 H          -1.7004    3.0388    0.0239 H       1  UNL1        0.0678
     33 H           0.7842    1.7469    2.6829 H       1  UNL1        0.0573
     34 H          -1.5848    2.1362    2.5345 H       1  UNL1        0.0596
     35 H           5.0941    0.7130    0.4995 H       1  UNL1        0.0391
     36 H           5.2027    0.5068   -1.2397 H       1  UNL1        0.0391
     37 H           4.6601   -0.8452   -0.2365 H       1  UNL1        0.0391
     38 H           1.0761   -3.3649    1.6339 H       1  UNL1        0.0622
     39 H          -1.1167   -4.1739    0.8526 H       1  UNL1        0.0655
     40 H          -4.9551    1.8149   -0.3916 H       1  UNL1        0.0524
     41 H          -3.6343    1.6558   -1.5531 H       1  UNL1        0.0524
     42 H          -3.8719    3.1881   -0.6578 H       1  UNL1        0.0524
     43 H          -3.0140   -3.6704   -0.2086 H       1  UNL1        0.2923
@<TRIPOS>BOND
     1     1     8    1
     2     1    16    1
     3     2    13    1
     4     2    22    1
     5     3    20    1
     6     3    43    1
     7     4     7    1
     8     4    12    1
     9     4    18    1
    10     5     6    1
    11     5     8    1
    12     5     9    1
    13     5    10    1
    14     6     7    1
    15     6    15    1
    16     6    23    1
    17     7    11    1
    18     7    24    1
    19     8    13    1
    20     8    25    1
    21     9    12    1
    22     9    26    1
    23     9    27    1
    24    10    14   ar
    25    10    16   ar
    26    11    14    1
    27    11    28    1
    28    11    29    1
    29    12    30    1
    30    12    31    1
    31    13    17    1
    32    13    32    1
    33    14    19   ar
    34    15    17    2
    35    15    33    1
    36    16    20   ar
    37    17    34    1
    38    18    35    1
    39    18    36    1
    40    18    37    1
    41    19    21   ar
    42    19    38    1
    43    20    21   ar
    44    21    39    1
    45    22    40    1
    46    22    41    1
    47    22    42    1
@<TRIPOS>MOLECULE
5359421
 42 46 0 0 0
SMALL
GASTEIGER

@<TRIPOS>ATOM
      1 O           1.9265    0.5930    1.3454 O.3     1  UNL1       -0.4814
      2 O           2.1790    2.0129   -0.9462 O.3     1  UNL1       -0.3881
      3 O           3.7856   -1.5397    0.6110 O.3     1  UNL1       -0.5033
      4 N          -3.0914   -0.4392    0.4480 N.3     1  UNL1       -0.3018
      5 C          -0.4063    0.6491    0.7028 C.3     1  UNL1        0.0443
      6 C          -1.4519    1.2223   -0.2555 C.3     1  UNL1       -0.0117
      7 C           0.8154    1.5151    1.0644 C.3     1  UNL1        0.1360
      8 C          -2.3322    0.0292   -0.7378 C.3     1  UNL1        0.0178
      9 C          -1.1516    0.0987    1.9419 C.3     1  UNL1       -0.0266
     10 C           0.3473   -0.4622    0.0685 C.ar    1  UNL1        0.0113
     11 C          -0.8443    2.0689   -1.3759 C.3     1  UNL1       -0.0454
     12 C           1.2467    2.5511   -0.0068 C.3     1  UNL1        0.0928
     13 C          -1.4988   -1.0801   -1.4714 C.3     1  UNL1       -0.0113
     14 C           0.0671    3.1481   -0.7784 C.3     1  UNL1       -0.0230
     15 C          -2.2565   -0.9054    1.5608 C.3     1  UNL1       -0.0002
     16 C          -0.1326   -1.3307   -0.8910 C.ar    1  UNL1       -0.0383
     17 C           1.6435   -0.4932    0.5457 C.ar    1  UNL1        0.1663
     18 C          -4.1387   -1.4025    0.1263 C.3     1  UNL1       -0.0125
     19 C           0.7375   -2.3334   -1.3176 C.ar    1  UNL1       -0.0546
     20 C           2.5126   -1.4837    0.1506 C.ar    1  UNL1        0.1588
     21 C           2.0431   -2.4183   -0.7846 C.ar    1  UNL1       -0.0162
     22 H          -2.0966    1.9145    0.3093 H       1  UNL1        0.0326
     23 H           0.6007    2.0657    1.9897 H       1  UNL1        0.0768
     24 H          -3.0648    0.4227   -1.4552 H       1  UNL1        0.0469
     25 H          -1.6083    0.9385    2.4830 H       1  UNL1        0.0287
     26 H          -0.4632   -0.3848    2.6472 H       1  UNL1        0.0287
     27 H          -1.6500    2.5535   -1.9406 H       1  UNL1        0.0270
     28 H          -0.2917    1.4562   -2.0950 H       1  UNL1        0.0270
     29 H           1.7891    3.3579    0.4991 H       1  UNL1        0.0630
     30 H          -1.3516   -0.7495   -2.5083 H       1  UNL1        0.0329
     31 H          -2.0538   -2.0218   -1.5261 H       1  UNL1        0.0329
     32 H           0.4407    3.7770   -1.5953 H       1  UNL1        0.0291
     33 H          -0.5194    3.7910   -0.1109 H       1  UNL1        0.0291
     34 H          -1.8064   -1.8786    1.3284 H       1  UNL1        0.0427
     35 H          -2.8838   -1.0628    2.4472 H       1  UNL1        0.0427
     36 H          -3.7424   -2.3812   -0.1621 H       1  UNL1        0.0391
     37 H          -4.7748   -1.0322   -0.6850 H       1  UNL1        0.0391
     38 H          -4.7947   -1.5501    0.9917 H       1  UNL1        0.0391
     39 H           0.4237   -3.0480   -2.0738 H       1  UNL1        0.0622
     40 H           1.7348    1.3275   -1.4705 H       1  UNL1        0.2099
     41 H           2.6981   -3.2117   -1.1383 H       1  UNL1        0.0655
     42 H           4.2330   -2.3021    0.2051 H       1  UNL1        0.2923
@<TRIPOS>BOND
     1     1     7    1
     2     1    17    1
     3     2    12    1
     4     2    40    1
     5     3    20    1
     6     3    42    1
     7     4     8    1
     8     4    15    1
     9     4    18    1
    10     5     6    1
    11     5     7    1
    12     5     9    1
    13     5    10    1
    14     6     8    1
    15     6    11    1
    16     6    22    1
    17     7    12    1
    18     7    23    1
    19     8    13    1
    20     8    24    1
    21     9    15    1
    22     9    25    1
    23     9    26    1
    24    10    16   ar
    25    10    17   ar
    26    11    14    1
    27    11    27    1
    28    11    28    1
    29    12    14    1
    30    12    29    1
    31    13    16    1
    32    13    30    1
    33    13    31    1
    34    14    32    1
    35    14    33    1
    36    15    34    1
    37    15    35    1
    38    16    19   ar
    39    17    20   ar
    40    18    36    1
    41    18    37    1
    42    18    38    1
    43    19    21   ar
    44    19    39    1
    45    20    21   ar
    46    21    41    1
@<TRIPOS>MOLECULE
53327325
 64 68 0 0 0
SMALL
GASTEIGER

@<TRIPOS>ATOM
      1 O           0.1389    0.9826   -1.0819 O.3     1  UNL1       -0.4811
      2 O          -0.7097    2.2832    1.0174 O.3     1  UNL1       -0.3666
      3 O          -1.6560   -1.2300   -1.6433 O.3     1  UNL1       -0.5033
      4 O          -3.1786    2.1468   -0.2910 O.3     1  UNL1       -0.3752
      5 O          -4.8649   -0.0642   -0.2802 O.3     1  UNL1       -0.3752
      6 O          -5.1364   -2.2073    1.4708 O.3     1  UNL1       -0.3807
      7 N           5.1667   -0.2197   -0.1904 N.3     1  UNL1       -0.3015
      8 C           2.4357    0.7573   -0.3032 C.3     1  UNL1        0.0480
      9 C           3.2570    0.7441    0.9950 C.3     1  UNL1        0.0064
     10 C           4.2129   -0.4901    0.9125 C.3     1  UNL1        0.0213
     11 C           1.2085    1.6965   -0.3686 C.3     1  UNL1        0.1401
     12 C           3.3840    0.9296   -1.5061 C.3     1  UNL1       -0.0263
     13 C           1.7012   -0.5384   -0.4088 C.ar    1  UNL1        0.0116
     14 C           3.4395   -1.8486    0.7974 C.3     1  UNL1       -0.0110
     15 C           4.5338   -0.0915   -1.5069 C.3     1  UNL1       -0.0001
     16 C           0.7134    2.2022    1.0116 C.3     1  UNL1        0.1145
     17 C           2.1490   -1.7726    0.0268 C.ar    1  UNL1       -0.0383
     18 C           2.3698    0.7719    2.2134 C.2     1  UNL1       -0.0799
     19 C           0.4345   -0.3429   -0.9112 C.ar    1  UNL1        0.1663
     20 C           1.1983    1.4251    2.2066 C.2     1  UNL1       -0.0557
     21 C           6.2903   -1.1500   -0.2277 C.3     1  UNL1       -0.0124
     22 C           1.3047   -2.8650   -0.1790 C.ar    1  UNL1       -0.0546
     23 C          -0.4129   -1.4063   -1.1314 C.ar    1  UNL1        0.1588
     24 C           0.0401   -2.6826   -0.7737 C.ar    1  UNL1       -0.0162
     25 C          -1.1713    3.3531    0.2058 C.3     1  UNL1        0.0719
     26 C          -2.6875    3.3752    0.2317 C.3     1  UNL1        0.0711
     27 C          -4.5286    2.2652   -0.7178 C.3     1  UNL1        0.0711
     28 C          -4.9867    0.9354   -1.2848 C.3     1  UNL1        0.0711
     29 C          -5.3027   -1.3312   -0.7509 C.3     1  UNL1        0.0711
     30 C          -4.7132   -2.4167    0.1290 C.3     1  UNL1        0.0706
     31 C          -4.6297   -3.2112    2.3391 C.3     1  UNL1        0.0365
     32 H           3.8746    1.6533    1.0533 H       1  UNL1        0.0368
     33 H           4.7980   -0.5227    1.8421 H       1  UNL1        0.0472
     34 H           1.4404    2.5760   -0.9835 H       1  UNL1        0.0772
     35 H           2.8410    0.8515   -2.4569 H       1  UNL1        0.0287
     36 H           3.8130    1.9403   -1.4739 H       1  UNL1        0.0287
     37 H           4.0717   -2.6378    0.3788 H       1  UNL1        0.0329
     38 H           3.1855   -2.1667    1.8177 H       1  UNL1        0.0329
     39 H           4.1684   -1.0628   -1.8629 H       1  UNL1        0.0427
     40 H           5.2772    0.2440   -2.2410 H       1  UNL1        0.0427
     41 H           1.1181    3.2132    1.1684 H       1  UNL1        0.0678
     42 H           2.7089    0.2884    3.1243 H       1  UNL1        0.0573
     43 H           0.6088    1.4611    3.1183 H       1  UNL1        0.0596
     44 H           6.0003   -2.1571   -0.5434 H       1  UNL1        0.0391
     45 H           7.0555   -0.7896   -0.9246 H       1  UNL1        0.0391
     46 H           6.7731   -1.2190    0.7532 H       1  UNL1        0.0391
     47 H           1.6041   -3.8591    0.1423 H       1  UNL1        0.0622
     48 H          -0.6000   -3.5504   -0.9167 H       1  UNL1        0.0655
     49 H          -0.8391    3.2382   -0.8302 H       1  UNL1        0.0583
     50 H          -0.7902    4.3037    0.5961 H       1  UNL1        0.0583
     51 H          -2.0832   -2.0987   -1.7368 H       1  UNL1        0.2923
     52 H          -3.0531    3.4777    1.2593 H       1  UNL1        0.0583
     53 H          -3.0435    4.2247   -0.3626 H       1  UNL1        0.0583
     54 H          -5.1474    2.5358    0.1455 H       1  UNL1        0.0583
     55 H          -4.6160    3.0416   -1.4860 H       1  UNL1        0.0583
     56 H          -4.3502    0.6627   -2.1348 H       1  UNL1        0.0583
     57 H          -6.0282    1.0059   -1.6172 H       1  UNL1        0.0583
     58 H          -6.3970   -1.3519   -0.7039 H       1  UNL1        0.0583
     59 H          -4.9841   -1.4977   -1.7864 H       1  UNL1        0.0583
     60 H          -3.6193   -2.3703    0.0968 H       1  UNL1        0.0582
     61 H          -5.0451   -3.4009   -0.2193 H       1  UNL1        0.0582
     62 H          -4.9825   -3.0004    3.3521 H       1  UNL1        0.0524
     63 H          -3.5354   -3.2002    2.3413 H       1  UNL1        0.0524
     64 H          -4.9963   -4.1980    2.0401 H       1  UNL1        0.0524
@<TRIPOS>BOND
     1     1    11    1
     2     1    19    1
     3     2    16    1
     4     2    25    1
     5     3    23    1
     6     3    51    1
     7     4    26    1
     8     4    27    1
     9     5    28    1
    10     5    29    1
    11     6    30    1
    12     6    31    1
    13     7    10    1
    14     7    15    1
    15     7    21    1
    16     8     9    1
    17     8    11    1
    18     8    12    1
    19     8    13    1
    20     9    10    1
    21     9    18    1
    22     9    32    1
    23    10    14    1
    24    10    33    1
    25    11    16    1
    26    11    34    1
    27    12    15    1
    28    12    35    1
    29    12    36    1
    30    13    17   ar
    31    13    19   ar
    32    14    17    1
    33    14    37    1
    34    14    38    1
    35    15    39    1
    36    15    40    1
    37    16    20    1
    38    16    41    1
    39    17    22   ar
    40    18    20    2
    41    18    42    1
    42    19    23   ar
    43    20    43    1
    44    21    44    1
    45    21    45    1
    46    21    46    1
    47    22    24   ar
    48    22    47    1
    49    23    24   ar
    50    24    48    1
    51    25    26    1
    52    25    49    1
    53    25    50    1
    54    26    52    1
    55    26    53    1
    56    27    28    1
    57    27    54    1
    58    27    55    1
    59    28    56    1
    60    28    57    1
    61    29    30    1
    62    29    58    1
    63    29    59    1
    64    30    60    1
    65    30    61    1
    66    31    62    1
    67    31    63    1
    68    31    64    1
@<TRIPOS>MOLECULE
163285318
 60 65 0 0 0
SMALL
GASTEIGER

@<TRIPOS>ATOM
      1 O          -0.6079    1.2601   -0.7073 O.3     1  UNL1       -0.4811
      2 O           1.1796    0.1080    0.8187 O.3     1  UNL1       -0.3377
      3 O          -1.1740    3.8881    0.3950 O.3     1  UNL1       -0.5033
      4 O           3.2971   -0.8402    0.5627 O.3     1  UNL1       -0.3315
      5 O           2.0684    2.4515   -0.5142 O.3     1  UNL1       -0.3841
      6 O           4.0637    1.3252   -2.0547 O.3     1  UNL1       -0.3864
      7 O           6.4211    0.4608   -0.8920 O.3     1  UNL1       -0.3860
      8 O           6.5181   -2.1176    0.0271 O.3     1  UNL1       -0.4788
      9 O           4.9325   -2.4666    1.6268 O.2     1  UNL1       -0.2480
     10 N          -4.6453   -2.0627   -1.0617 N.3     1  UNL1       -0.3015
     11 C          -2.1523   -0.6209   -0.6967 C.3     1  UNL1        0.0480
     12 C          -2.5105   -1.8734    0.1170 C.3     1  UNL1        0.0064
     13 C          -0.6640   -0.2081   -0.7665 C.3     1  UNL1        0.1402
     14 C          -4.0643   -1.8712    0.2893 C.3     1  UNL1        0.0213
     15 C          -2.8144   -0.7097   -2.0861 C.3     1  UNL1       -0.0263
     16 C          -2.6557    0.5795    0.0345 C.ar    1  UNL1        0.0116
     17 C          -4.5859   -0.6095    1.0597 C.3     1  UNL1       -0.0110
     18 C          -4.3247   -0.9883   -2.0065 C.3     1  UNL1       -0.0001
     19 C           0.2315   -0.8382    0.3330 C.3     1  UNL1        0.1175
     20 C          -3.8028    0.6498    0.8039 C.ar    1  UNL1       -0.0383
     21 C          -1.7357   -1.9404    1.4077 C.2     1  UNL1       -0.0799
     22 C          -1.7615    1.6219   -0.0648 C.ar    1  UNL1        0.1663
     23 C          -0.4907   -1.4507    1.5011 C.2     1  UNL1       -0.0556
     24 C          -6.0765   -2.3462   -1.0434 C.3     1  UNL1       -0.0124
     25 C          -4.0988    1.8800    1.3933 C.ar    1  UNL1       -0.0546
     26 C          -2.0365    2.8477    0.4999 C.ar    1  UNL1        0.1588
     27 C          -3.2291    2.9762    1.2234 C.ar    1  UNL1       -0.0162
     28 C           2.3690    0.1052    0.0302 C.3     1  UNL1        0.1893
     29 C           2.9652    1.5161    0.0758 C.3     1  UNL1        0.1342
     30 C           4.3014    1.5663   -0.6637 C.3     1  UNL1        0.1145
     31 C           5.2314    0.4844   -0.1110 C.3     1  UNL1        0.1201
     32 C           4.5356   -0.8766   -0.1444 C.3     1  UNL1        0.1859
     33 C           5.3159   -1.9005    0.6140 C.2     1  UNL1        0.3367
     34 H          -2.2292   -2.7755   -0.4472 H       1  UNL1        0.0368
     35 H          -0.2372   -0.4808   -1.7403 H       1  UNL1        0.0772
     36 H          -4.3363   -2.7546    0.8835 H       1  UNL1        0.0472
     37 H          -2.3372   -1.5212   -2.6521 H       1  UNL1        0.0287
     38 H          -2.6543    0.2095   -2.6644 H       1  UNL1        0.0287
     39 H          -4.5036   -0.8258    2.1336 H       1  UNL1        0.0329
     40 H          -5.6473   -0.4288    0.8639 H       1  UNL1        0.0329
     41 H          -4.8597   -0.0660   -1.7481 H       1  UNL1        0.0427
     42 H          -4.6653   -1.2686   -3.0112 H       1  UNL1        0.0427
     43 H           0.7640   -1.6916   -0.1143 H       1  UNL1        0.0679
     44 H          -2.1813   -2.4369    2.2641 H       1  UNL1        0.0573
     45 H           0.0490   -1.5645    2.4371 H       1  UNL1        0.0596
     46 H          -6.3034   -3.1675   -0.3549 H       1  UNL1        0.0391
     47 H          -6.6799   -1.4784   -0.7592 H       1  UNL1        0.0391
     48 H          -6.4091   -2.6731   -2.0352 H       1  UNL1        0.0391
     49 H          -4.9873    1.9950    2.0083 H       1  UNL1        0.0622
     50 H          -3.4823    3.9216    1.6979 H       1  UNL1        0.0655
     51 H           2.1208   -0.1607   -1.0052 H       1  UNL1        0.0938
     52 H           3.1110    1.8136    1.1218 H       1  UNL1        0.0671
     53 H           4.7583    2.5592   -0.5980 H       1  UNL1        0.0648
     54 H          -1.5459    4.6533    0.8664 H       1  UNL1        0.2923
     55 H           5.5074    0.7373    0.9206 H       1  UNL1        0.0652
     56 H           4.3754   -1.2684   -1.1555 H       1  UNL1        0.0741
     57 H           2.4813    3.3300   -0.4572 H       1  UNL1        0.2101
     58 H           3.7283    0.4252   -2.1845 H       1  UNL1        0.2100
     59 H           6.8247    1.3439   -0.8388 H       1  UNL1        0.2100
     60 H           7.0474   -2.7861    0.5121 H       1  UNL1        0.2951
@<TRIPOS>BOND
     1     1    13    1
     2     1    22    1
     3     2    19    1
     4     2    28    1
     5     3    26    1
     6     3    54    1
     7     4    28    1
     8     4    32    1
     9     5    29    1
    10     5    57    1
    11     6    30    1
    12     6    58    1
    13     7    31    1
    14     7    59    1
    15     8    33    1
    16     8    60    1
    17     9    33    2
    18    10    14    1
    19    10    18    1
    20    10    24    1
    21    11    12    1
    22    11    13    1
    23    11    15    1
    24    11    16    1
    25    12    14    1
    26    12    21    1
    27    12    34    1
    28    13    19    1
    29    13    35    1
    30    14    17    1
    31    14    36    1
    32    15    18    1
    33    15    37    1
    34    15    38    1
    35    16    20   ar
    36    16    22   ar
    37    17    20    1
    38    17    39    1
    39    17    40    1
    40    18    41    1
    41    18    42    1
    42    19    23    1
    43    19    43    1
    44    20    25   ar
    45    21    23    2
    46    21    44    1
    47    22    26   ar
    48    23    45    1
    49    24    46    1
    50    24    47    1
    51    24    48    1
    52    25    27   ar
    53    25    49    1
    54    26    27   ar
    55    27    50    1
    56    28    29    1
    57    28    51    1
    58    29    30    1
    59    29    52    1
    60    30    31    1
    61    30    53    1
    62    31    32    1
    63    31    55    1
    64    32    33    1
    65    32    56    1
@<TRIPOS>MOLECULE
163285670
 63 68 0 0 0
SMALL
GASTEIGER

@<TRIPOS>ATOM
      1 O           0.9009    1.1693   -1.3703 O.3     1  UNL1       -0.4811
      2 O           2.1874    3.4059   -1.8112 O.3     1  UNL1       -0.3841
      3 O          -1.2386    1.7180    0.5174 O.3     1  UNL1       -0.4571
      4 O          -2.5249   -0.1652    0.0254 O.3     1  UNL1       -0.3221
      5 O          -3.5975    3.1455    1.1348 O.3     1  UNL1       -0.3829
      6 O          -5.9445    2.0881   -0.2962 O.3     1  UNL1       -0.3863
      7 O          -6.1289   -0.7853    0.0986 O.3     1  UNL1       -0.3860
      8 O          -4.6276   -2.9409   -0.4065 O.3     1  UNL1       -0.4661
      9 O          -2.5702   -2.3436   -1.2708 O.2     1  UNL1       -0.2478
     10 N           4.4863   -2.3605    0.0973 N.3     1  UNL1       -0.3015
     11 C           2.8942   -0.1386   -0.8803 C.3     1  UNL1        0.0480
     12 C           4.3546    0.0238   -0.4332 C.3     1  UNL1        0.0064
     13 C           4.5949   -1.0145    0.7106 C.3     1  UNL1        0.0213
     14 C           2.2936    0.9563   -1.7917 C.3     1  UNL1        0.1399
     15 C           2.6873   -1.5609   -1.4380 C.3     1  UNL1       -0.0263
     16 C           2.0092    0.0816    0.3018 C.ar    1  UNL1        0.0116
     17 C           3.6645   -0.7762    1.9494 C.3     1  UNL1       -0.0110
     18 C           3.1651   -2.6536   -0.4671 C.3     1  UNL1       -0.0001
     19 C           2.2944   -0.2519    1.6132 C.ar    1  UNL1       -0.0383
     20 C           3.0790    2.2947   -1.7942 C.3     1  UNL1        0.1110
     21 C           4.6694    1.4501   -0.0630 C.2     1  UNL1       -0.0799
     22 C           0.8746    0.7728   -0.0601 C.ar    1  UNL1        0.1667
     23 C           4.0700    2.4798   -0.6786 C.2     1  UNL1       -0.0559
     24 C           1.3166    0.0305    2.5684 C.ar    1  UNL1       -0.0546
     25 C           4.9423   -3.4357    0.9719 C.3     1  UNL1       -0.0124
     26 C          -0.1084    1.0542    0.8628 C.ar    1  UNL1        0.1657
     27 C           0.1147    0.6615    2.1889 C.ar    1  UNL1       -0.0159
     28 C          -2.4820    1.0590    0.7543 C.3     1  UNL1        0.2314
     29 C          -3.6042    1.9908    0.2956 C.3     1  UNL1        0.1455
     30 C          -4.9670    1.3042    0.3894 C.3     1  UNL1        0.1157
     31 C          -4.9379   -0.0829   -0.2533 C.3     1  UNL1        0.1202
     32 C          -3.7365   -0.8805    0.2383 C.3     1  UNL1        0.1871
     33 C          -3.5504   -2.1219   -0.5727 C.2     1  UNL1        0.3388
     34 C          -4.5805   -4.1741   -1.1312 C.3     1  UNL1        0.0817
     35 H           5.0279   -0.2235   -1.2679 H       1  UNL1        0.0368
     36 H           5.6329   -0.9009    1.0528 H       1  UNL1        0.0472
     37 H           2.2371    0.6041   -2.8297 H       1  UNL1        0.0772
     38 H           3.2489   -1.6558   -2.3772 H       1  UNL1        0.0287
     39 H           1.6335   -1.7436   -1.6851 H       1  UNL1        0.0287
     40 H           4.1504   -0.0211    2.5823 H       1  UNL1        0.0329
     41 H           3.5729   -1.6776    2.5632 H       1  UNL1        0.0329
     42 H           2.4219   -2.7959    0.3273 H       1  UNL1        0.0427
     43 H           3.2044   -3.5991   -1.0226 H       1  UNL1        0.0427
     44 H           3.6537    2.3417   -2.7284 H       1  UNL1        0.0675
     45 H           5.4308    1.6437    0.6863 H       1  UNL1        0.0573
     46 H           4.3662    3.4905   -0.4114 H       1  UNL1        0.0596
     47 H           1.4865   -0.2067    3.6152 H       1  UNL1        0.0622
     48 H           5.9408   -3.2204    1.3678 H       1  UNL1        0.0391
     49 H           4.2667   -3.6165    1.8138 H       1  UNL1        0.0391
     50 H           5.0285   -4.3707    0.4068 H       1  UNL1        0.0391
     51 H          -0.6159    0.8849    2.9625 H       1  UNL1        0.0655
     52 H           2.7165    4.2146   -1.9210 H       1  UNL1        0.2104
     53 H          -2.5857    0.8568    1.8286 H       1  UNL1        0.1084
     54 H          -3.4192    2.3409   -0.7268 H       1  UNL1        0.0683
     55 H          -5.3033    1.2403    1.4310 H       1  UNL1        0.0648
     56 H          -4.9255    0.0171   -1.3464 H       1  UNL1        0.0652
     57 H          -3.8164   -1.1696    1.2936 H       1  UNL1        0.0742
     58 H          -3.7585    2.8552    2.0488 H       1  UNL1        0.2102
     59 H          -5.6627    2.1806   -1.2223 H       1  UNL1        0.2100
     60 H          -6.1606   -1.6009   -0.4289 H       1  UNL1        0.2100
     61 H          -5.4947   -4.7320   -0.9121 H       1  UNL1        0.0661
     62 H          -4.5372   -3.9792   -2.2070 H       1  UNL1        0.0661
     63 H          -3.7201   -4.7692   -0.8106 H       1  UNL1        0.0661
@<TRIPOS>BOND
     1     1    14    1
     2     1    22    1
     3     2    20    1
     4     2    52    1
     5     3    26    1
     6     3    28    1
     7     4    28    1
     8     4    32    1
     9     5    29    1
    10     5    58    1
    11     6    30    1
    12     6    59    1
    13     7    31    1
    14     7    60    1
    15     8    33    1
    16     8    34    1
    17     9    33    2
    18    10    13    1
    19    10    18    1
    20    10    25    1
    21    11    12    1
    22    11    14    1
    23    11    15    1
    24    11    16    1
    25    12    13    1
    26    12    21    1
    27    12    35    1
    28    13    17    1
    29    13    36    1
    30    14    20    1
    31    14    37    1
    32    15    18    1
    33    15    38    1
    34    15    39    1
    35    16    19   ar
    36    16    22   ar
    37    17    19    1
    38    17    40    1
    39    17    41    1
    40    18    42    1
    41    18    43    1
    42    19    24   ar
    43    20    23    1
    44    20    44    1
    45    21    23    2
    46    21    45    1
    47    22    26   ar
    48    23    46    1
    49    24    27   ar
    50    24    47    1
    51    25    48    1
    52    25    49    1
    53    25    50    1
    54    26    27   ar
    55    27    51    1
    56    28    29    1
    57    28    53    1
    58    29    30    1
    59    29    54    1
    60    30    31    1
    61    30    55    1
    62    31    32    1
    63    31    56    1
    64    32    33    1
    65    32    57    1
    66    34    61    1
    67    34    62    1
    68    34    63    1
@<TRIPOS>MOLECULE
5362446
 44 48 0 0 0
SMALL
GASTEIGER

@<TRIPOS>ATOM
      1 O           2.0839    0.5719    1.2545 O.3     1  UNL1       -0.4811
      2 O           2.8488    2.5994   -0.1957 O.3     1  UNL1       -0.3841
      3 O           3.8527   -1.6701    0.7226 O.3     1  UNL1       -0.5033
      4 N          -3.0468   -0.2868    0.3248 N.4     1  UNL1        0.2418
      5 C          -0.2595    0.6889    0.6012 C.3     1  UNL1        0.0553
      6 C          -1.1650    1.2220   -0.5168 C.3     1  UNL1        0.0340
      7 C          -2.1355    0.0657   -0.9169 C.3     1  UNL1       -0.0082
      8 C          -1.0980    0.3304    1.8434 C.3     1  UNL1        0.0015
      9 C           0.9961    1.5188    0.9654 C.3     1  UNL1        0.1402
     10 C           0.4506   -0.5249    0.0987 C.ar    1  UNL1        0.0120
     11 C          -2.2249   -0.6657    1.5608 C.3     1  UNL1       -0.0294
     12 C          -1.3695   -1.1870   -1.4614 C.3     1  UNL1        0.0166
     13 C          -0.0484   -1.4567   -0.7928 C.ar    1  UNL1       -0.0345
     14 C          -0.3599    1.7668   -1.6716 C.2     1  UNL1       -0.0761
     15 C           1.4267    2.5483   -0.1120 C.3     1  UNL1        0.1110
     16 C           1.7476   -0.5589    0.5598 C.ar    1  UNL1        0.1663
     17 C          -3.9960   -1.4524   -0.0052 C.3     1  UNL1       -0.0412
     18 C          -3.9702    0.9027    0.6584 C.3     1  UNL1       -0.0412
     19 C           0.8305    2.3539   -1.4799 C.2     1  UNL1       -0.0558
     20 C           0.7796   -2.5322   -1.1197 C.ar    1  UNL1       -0.0544
     21 C           2.5798   -1.6147    0.2595 C.ar    1  UNL1        0.1588
     22 C           2.0775   -2.6194   -0.5771 C.ar    1  UNL1       -0.0162
     23 H          -1.7411    2.0798   -0.1531 H       1  UNL1        0.0408
     24 H          -2.8359    0.4050   -1.6911 H       1  UNL1        0.0861
     25 H          -1.5230    1.2500    2.2650 H       1  UNL1        0.0327
     26 H          -0.4632   -0.0919    2.6339 H       1  UNL1        0.0327
     27 H           0.8326    2.0714    1.8998 H       1  UNL1        0.0772
     28 H          -1.8195   -1.6692    1.3910 H       1  UNL1        0.0815
     29 H          -2.9129   -0.7277    2.4122 H       1  UNL1        0.0815
     30 H          -1.1415   -0.9827   -2.5170 H       1  UNL1        0.0368
     31 H          -1.9781   -2.0927   -1.4639 H       1  UNL1        0.0368
     32 H          -0.7782    1.7203   -2.6724 H       1  UNL1        0.0575
     33 H           1.1002    3.5407    0.2256 H       1  UNL1        0.0675
     34 H          -4.7350   -1.5370    0.7980 H       1  UNL1        0.0778
     35 H          -4.4874   -1.2364   -0.9580 H       1  UNL1        0.0778
     36 H          -3.4275   -2.3835   -0.0529 H       1  UNL1        0.0778
     37 H          -4.5109    1.1812   -0.2506 H       1  UNL1        0.0778
     38 H          -4.6718    0.5892    1.4379 H       1  UNL1        0.0778
     39 H          -3.3809    1.7405    1.0315 H       1  UNL1        0.0778
     40 H           1.3514    2.7738   -2.3358 H       1  UNL1        0.0596
     41 H           0.4414   -3.2939   -1.8171 H       1  UNL1        0.0622
     42 H           2.7028   -3.4655   -0.8530 H       1  UNL1        0.0655
     43 H           3.0869    3.3030   -0.8234 H       1  UNL1        0.2104
     44 H           4.2719   -2.4834    0.3924 H       1  UNL1        0.2923
@<TRIPOS>UNITY_ATOM_ATTR
4 1
charge 1
@<TRIPOS>BOND
     1     1     9    1
     2     1    16    1
     3     2    15    1
     4     2    43    1
     5     3    21    1
     6     3    44    1
     7     4     7    1
     8     4    11    1
     9     4    17    1
    10     4    18    1
    11     5     6    1
    12     5     8    1
    13     5     9    1
    14     5    10    1
    15     6     7    1
    16     6    14    1
    17     6    23    1
    18     7    12    1
    19     7    24    1
    20     8    11    1
    21     8    25    1
    22     8    26    1
    23     9    15    1
    24     9    27    1
    25    10    13   ar
    26    10    16   ar
    27    11    28    1
    28    11    29    1
    29    12    13    1
    30    12    30    1
    31    12    31    1
    32    13    20   ar
    33    14    19    2
    34    14    32    1
    35    15    19    1
    36    15    33    1
    37    16    21   ar
    38    17    34    1
    39    17    35    1
    40    17    36    1
    41    18    37    1
    42    18    38    1
    43    18    39    1
    44    19    40    1
    45    20    22   ar
    46    20    41    1
    47    21    22   ar
    48    22    42    1
@<TRIPOS>MOLECULE
57369974
 59 62 0 0 0
SMALL
GASTEIGER

@<TRIPOS>ATOM
      1 O          -6.9124   -3.8735   -1.3030 O.2     1  UNL1       -0.2926
      2 O           5.9156   -4.5477   -1.3881 O.2     1  UNL1       -0.2926
      3 N          -5.1290    0.4137   -0.4044 N.pl3   1  UNL1       -0.2705
      4 N           5.4841    0.0245   -0.2582 N.pl3   1  UNL1       -0.2705
      5 N          -4.5532    1.3091    0.4142 N.pl3   1  UNL1       -0.2668
      6 N           5.0006    1.0213    0.5062 N.pl3   1  UNL1       -0.2668
      7 C          -4.8161   -2.8240    1.4385 C.3     1  UNL1       -0.0409
      8 C           4.7271   -3.0787    1.6845 C.3     1  UNL1       -0.0409
      9 C          -4.9793   -1.3118    1.3120 C.3     1  UNL1       -0.0128
     10 C           4.4802   -1.6528    1.1996 C.3     1  UNL1       -0.0128
     11 C          -6.0363   -3.5545    0.9047 C.3     1  UNL1        0.0103
     12 C           4.5848   -4.0772    0.5486 C.3     1  UNL1        0.0103
     13 C          -5.4098   -0.8840   -0.0718 C.2     1  UNL1        0.0251
     14 C           5.2759   -1.3104   -0.0386 C.2     1  UNL1        0.0251
     15 C          -6.3457   -3.1239   -0.5098 C.2     1  UNL1        0.1576
     16 C           5.4736   -3.7011   -0.6134 C.2     1  UNL1        0.1576
     17 C          -6.0161   -1.7347   -0.9170 C.2     1  UNL1       -0.0010
     18 C           5.7542   -2.2634   -0.8562 C.2     1  UNL1       -0.0010
     19 C           0.3038    4.0679   -0.6454 C.3     1  UNL1       -0.0024
     20 C          -0.9705    3.3444   -0.3680 C.ar    1  UNL1       -0.0429
     21 C           1.5489    3.2595   -0.3401 C.ar    1  UNL1       -0.0429
     22 C          -3.3536    1.9908    0.1519 C.ar    1  UNL1        0.0443
     23 C           3.8413    1.7726    0.2221 C.ar    1  UNL1        0.0443
     24 C          -1.4374    2.3842   -1.2657 C.ar    1  UNL1       -0.0565
     25 C           1.9869    2.2867   -1.2387 C.ar    1  UNL1       -0.0565
     26 C          -1.6951    3.6275    0.7898 C.ar    1  UNL1       -0.0565
     27 C           2.2571    3.4889    0.8394 C.ar    1  UNL1       -0.0565
     28 C          -2.6290    1.7074   -1.0058 C.ar    1  UNL1       -0.0391
     29 C           3.1331    1.5432   -0.9577 C.ar    1  UNL1       -0.0391
     30 C          -2.8867    2.9507    1.0497 C.ar    1  UNL1       -0.0391
     31 C           3.4033    2.7455    1.1206 C.ar    1  UNL1       -0.0391
     32 H          -3.9267   -3.1403    0.8775 H       1  UNL1        0.0273
     33 H          -4.6455   -3.0945    2.4866 H       1  UNL1        0.0273
     34 H           5.7383   -3.1475    2.1068 H       1  UNL1        0.0273
     35 H           4.0268   -3.3251    2.4906 H       1  UNL1        0.0273
     36 H          -4.0138   -0.8675    1.5824 H       1  UNL1        0.0326
     37 H          -5.7176   -0.9548    2.0411 H       1  UNL1        0.0326
     38 H           4.7370   -0.9874    2.0327 H       1  UNL1        0.0326
     39 H           3.4128   -1.5124    0.9875 H       1  UNL1        0.0326
     40 H          -5.8443   -4.6328    0.9089 H       1  UNL1        0.0345
     41 H          -6.9167   -3.3554    1.5253 H       1  UNL1        0.0345
     42 H           4.8729   -5.0729    0.9025 H       1  UNL1        0.0345
     43 H           3.5506   -4.1208    0.1904 H       1  UNL1        0.0345
     44 H          -6.3124   -1.4311   -1.9158 H       1  UNL1        0.0668
     45 H           6.3372   -2.0177   -1.7378 H       1  UNL1        0.0668
     46 H          -5.4321    0.7402   -1.3165 H       1  UNL1        0.1695
     47 H           6.0314    0.2875   -1.0715 H       1  UNL1        0.1695
     48 H           0.3291    4.3768   -1.6998 H       1  UNL1        0.0361
     49 H           0.3342    5.0142   -0.0883 H       1  UNL1        0.0361
     50 H          -5.0672    1.5752    1.2472 H       1  UNL1        0.1699
     51 H           5.5065    1.2445    1.3562 H       1  UNL1        0.1699
     52 H          -0.8962    2.1603   -2.1802 H       1  UNL1        0.0621
     53 H           1.4585    2.1049   -2.1699 H       1  UNL1        0.0621
     54 H          -1.3420    4.3712    1.4992 H       1  UNL1        0.0621
     55 H           1.9254    4.2424    1.5489 H       1  UNL1        0.0621
     56 H          -2.9668    0.9661   -1.7250 H       1  UNL1        0.0637
     57 H           3.4517    0.7967   -1.6802 H       1  UNL1        0.0637
     58 H          -3.4415    3.1801    1.9560 H       1  UNL1        0.0637
     59 H           3.9459    2.9332    2.0436 H       1  UNL1        0.0637
@<TRIPOS>BOND
     1     1    15    2
     2     2    16    2
     3     3     5    1
     4     3    13    1
     5     3    46    1
     6     4     6    1
     7     4    14    1
     8     4    47    1
     9     5    22    1
    10     5    50    1
    11     6    23    1
    12     6    51    1
    13     7     9    1
    14     7    11    1
    15     7    32    1
    16     7    33    1
    17     8    10    1
    18     8    12    1
    19     8    34    1
    20     8    35    1
    21     9    13    1
    22     9    36    1
    23     9    37    1
    24    10    14    1
    25    10    38    1
    26    10    39    1
    27    11    15    1
    28    11    40    1
    29    11    41    1
    30    12    16    1
    31    12    42    1
    32    12    43    1
    33    13    17    2
    34    14    18    2
    35    15    17    1
    36    16    18    1
    37    17    44    1
    38    18    45    1
    39    19    20    1
    40    19    21    1
    41    19    48    1
    42    19    49    1
    43    20    24   ar
    44    20    26   ar
    45    21    25   ar
    46    21    27   ar
    47    22    28   ar
    48    22    30   ar
    49    23    29   ar
    50    23    31   ar
    51    24    28   ar
    52    24    52    1
    53    25    29   ar
    54    25    53    1
    55    26    30   ar
    56    26    54    1
    57    27    31   ar
    58    27    55    1
    59    28    56    1
    60    29    57    1
    61    30    58    1
    62    31    59    1
@<TRIPOS>MOLECULE
118701622
 42 46 0 0 0
SMALL
GASTEIGER

@<TRIPOS>ATOM
      1 O           1.9265    0.5930    1.3454 O.3     1  UNL1       -0.4814
      2 O           2.1791    2.0128   -0.9462 O.3     1  UNL1       -0.3881
      3 O           3.7858   -1.5394    0.6109 O.3     1  UNL1       -0.5033
      4 N          -3.0915   -0.4391    0.4480 N.3     1  UNL1       -0.3018
      5 C          -0.4063    0.6490    0.7027 C.3     1  UNL1        0.0443
      6 C          -1.4519    1.2222   -0.2556 C.3     1  UNL1       -0.0117
      7 C           0.8153    1.5151    1.0644 C.3     1  UNL1        0.1360
      8 C          -2.3322    0.0293   -0.7378 C.3     1  UNL1        0.0178
      9 C          -1.1516    0.0986    1.9419 C.3     1  UNL1       -0.0266
     10 C           0.3473   -0.4622    0.0684 C.ar    1  UNL1        0.0113
     11 C          -0.8441    2.0688   -1.3759 C.3     1  UNL1       -0.0454
     12 C           1.2467    2.5510   -0.0068 C.3     1  UNL1        0.0928
     13 C          -1.4988   -1.0801   -1.4714 C.3     1  UNL1       -0.0113
     14 C           0.0672    3.1481   -0.7785 C.3     1  UNL1       -0.0230
     15 C          -2.2566   -0.9056    1.5607 C.3     1  UNL1       -0.0002
     16 C          -0.1327   -1.3307   -0.8910 C.ar    1  UNL1       -0.0383
     17 C           1.6435   -0.4932    0.5456 C.ar    1  UNL1        0.1663
     18 C          -4.1389   -1.4021    0.1263 C.3     1  UNL1       -0.0125
     19 C           0.7374   -2.3335   -1.3176 C.ar    1  UNL1       -0.0546
     20 C           2.5126   -1.4837    0.1506 C.ar    1  UNL1        0.1588
     21 C           2.0431   -2.4183   -0.7844 C.ar    1  UNL1       -0.0162
     22 H          -2.0967    1.9146    0.3091 H       1  UNL1        0.0326
     23 H           0.6005    2.0654    1.9898 H       1  UNL1        0.0768
     24 H          -3.0647    0.4227   -1.4552 H       1  UNL1        0.0469
     25 H          -1.6083    0.9384    2.4830 H       1  UNL1        0.0287
     26 H          -0.4632   -0.3850    2.6471 H       1  UNL1        0.0287
     27 H          -1.6466    2.5483   -1.9489 H       1  UNL1        0.0270
     28 H          -0.2758    1.4552   -2.0834 H       1  UNL1        0.0270
     29 H           1.7871    3.3558    0.5061 H       1  UNL1        0.0630
     30 H          -1.3516   -0.7495   -2.5082 H       1  UNL1        0.0329
     31 H          -2.0539   -2.0218   -1.5261 H       1  UNL1        0.0329
     32 H           0.4350    3.7818   -1.5942 H       1  UNL1        0.0291
     33 H          -0.5201    3.7880   -0.1087 H       1  UNL1        0.0291
     34 H          -1.8065   -1.8787    1.3283 H       1  UNL1        0.0427
     35 H          -2.8838   -1.0629    2.4472 H       1  UNL1        0.0427
     36 H          -4.7751   -1.0316   -0.6849 H       1  UNL1        0.0391
     37 H          -4.7948   -1.5497    0.9917 H       1  UNL1        0.0391
     38 H          -3.7428   -2.3808   -0.1622 H       1  UNL1        0.0391
     39 H           0.4237   -3.0482   -2.0737 H       1  UNL1        0.0622
     40 H           2.4519    2.7337   -1.5388 H       1  UNL1        0.2099
     41 H           2.6980   -3.2117   -1.1382 H       1  UNL1        0.0655
     42 H           4.2331   -2.3018    0.2050 H       1  UNL1        0.2923
@<TRIPOS>BOND
     1     1     7    1
     2     1    17    1
     3     2    12    1
     4     2    40    1
     5     3    20    1
     6     3    42    1
     7     4     8    1
     8     4    15    1
     9     4    18    1
    10     5     6    1
    11     5     7    1
    12     5     9    1
    13     5    10    1
    14     6     8    1
    15     6    11    1
    16     6    22    1
    17     7    12    1
    18     7    23    1
    19     8    13    1
    20     8    24    1
    21     9    15    1
    22     9    25    1
    23     9    26    1
    24    10    16   ar
    25    10    17   ar
    26    11    14    1
    27    11    27    1
    28    11    28    1
    29    12    14    1
    30    12    29    1
    31    13    16    1
    32    13    30    1
    33    13    31    1
    34    14    32    1
    35    14    33    1
    36    15    34    1
    37    15    35    1
    38    16    19   ar
    39    17    20   ar
    40    18    36    1
    41    18    37    1
    42    18    38    1
    43    19    21   ar
    44    19    39    1
    45    20    21   ar
    46    21    41    1
@<TRIPOS>MOLECULE
61063
 44 48 0 0 0
SMALL
GASTEIGER

@<TRIPOS>ATOM
      1 O           2.0931    0.8032    1.2343 O.3     1  UNL1       -0.4811
      2 O           2.6392    2.7528   -0.4400 O.3     1  UNL1       -0.3841
      3 O           4.0923   -1.2420    0.7517 O.3     1  UNL1       -0.5033
      4 N          -3.2415   -0.2929    0.2420 N.4     1  UNL1        0.2418
      5 C          -0.2675    0.6748    0.6609 C.3     1  UNL1        0.0553
      6 C          -1.1812    0.9155   -0.5268 C.3     1  UNL1        0.0340
      7 C          -1.9521   -0.4477   -0.4836 C.3     1  UNL1       -0.0082
      8 C          -1.2394    0.4977    1.9119 C.3     1  UNL1        0.0015
      9 C           0.9256    1.6238    0.8799 C.3     1  UNL1        0.1402
     10 C           0.5555   -0.5597    0.2407 C.ar    1  UNL1        0.0120
     11 C          -2.8265    0.5141    1.5907 C.3     1  UNL1       -0.0294
     12 C          -1.2827   -1.5917   -1.2392 C.3     1  UNL1        0.0166
     13 C           0.1552   -1.6084   -0.6389 C.ar    1  UNL1       -0.0345
     14 C          -0.4301    1.3147   -1.7680 C.2     1  UNL1       -0.0761
     15 C           1.2352    2.5242   -0.3505 C.3     1  UNL1        0.1110
     16 C           1.8596   -0.4092    0.6443 C.ar    1  UNL1        0.1663
     17 C          -3.8758   -1.6342    0.5668 C.3     1  UNL1       -0.0412
     18 C          -4.2698    0.5283   -0.5431 C.3     1  UNL1       -0.0412
     19 C           0.6922    2.0463   -1.6745 C.2     1  UNL1       -0.0558
     20 C           1.1031   -2.5767   -0.9572 C.ar    1  UNL1       -0.0544
     21 C           2.8037   -1.3693    0.3450 C.ar    1  UNL1        0.1588
     22 C           2.4123   -2.4637   -0.4462 C.ar    1  UNL1       -0.0162
     23 H          -1.8358    1.7715   -0.3296 H       1  UNL1        0.0408
     24 H          -1.6282   -0.9862    0.4097 H       1  UNL1        0.0861
     25 H          -1.0679    1.3078    2.6307 H       1  UNL1        0.0327
     26 H          -1.0029   -0.4358    2.4391 H       1  UNL1        0.0327
     27 H           0.7586    2.2826    1.7404 H       1  UNL1        0.0772
     28 H          -3.3945    0.0688    2.4137 H       1  UNL1        0.0815
     29 H          -3.1592    1.5483    1.4494 H       1  UNL1        0.0815
     30 H          -1.2393   -1.3989   -2.3150 H       1  UNL1        0.0368
     31 H          -1.7660   -2.5591   -1.0656 H       1  UNL1        0.0368
     32 H          -0.8322    1.0549   -2.7415 H       1  UNL1        0.0575
     33 H           0.7764    3.5054   -0.1744 H       1  UNL1        0.0675
     34 H          -4.0888   -2.1544   -0.3715 H       1  UNL1        0.0778
     35 H          -3.1879   -2.2163    1.1875 H       1  UNL1        0.0778
     36 H          -4.8022   -1.4509    1.1193 H       1  UNL1        0.0778
     37 H          -5.1682    0.6253    0.0733 H       1  UNL1        0.0778
     38 H          -3.8646    1.5160   -0.7693 H       1  UNL1        0.0778
     39 H          -4.4905   -0.0096   -1.4697 H       1  UNL1        0.0778
     40 H           1.1900    2.3694   -2.5841 H       1  UNL1        0.0596
     41 H           0.8496   -3.4073   -1.6090 H       1  UNL1        0.0622
     42 H           3.1392   -3.2289   -0.7113 H       1  UNL1        0.0655
     43 H           3.0707    1.8938   -0.5870 H       1  UNL1        0.2104
     44 H           4.6002   -2.0071    0.4312 H       1  UNL1        0.2923
@<TRIPOS>UNITY_ATOM_ATTR
4 1
charge 1
@<TRIPOS>BOND
     1     1     9    1
     2     1    16    1
     3     2    15    1
     4     2    43    1
     5     3    21    1
     6     3    44    1
     7     4     7    1
     8     4    11    1
     9     4    17    1
    10     4    18    1
    11     5     6    1
    12     5     8    1
    13     5     9    1
    14     5    10    1
    15     6     7    1
    16     6    14    1
    17     6    23    1
    18     7    12    1
    19     7    24    1
    20     8    11    1
    21     8    25    1
    22     8    26    1
    23     9    15    1
    24     9    27    1
    25    10    13   ar
    26    10    16   ar
    27    11    28    1
    28    11    29    1
    29    12    13    1
    30    12    30    1
    31    12    31    1
    32    13    20   ar
    33    14    19    2
    34    14    32    1
    35    15    19    1
    36    15    33    1
    37    16    21   ar
    38    17    34    1
    39    17    35    1
    40    17    36    1
    41    18    37    1
    42    18    38    1
    43    18    39    1
    44    19    40    1
    45    20    22   ar
    46    20    41    1
    47    21    22   ar
    48    22    42    1
@<TRIPOS>MOLECULE
519207
 42 46 0 0 0
SMALL
GASTEIGER

@<TRIPOS>ATOM
      1 O          -2.0292   -0.3578    1.1503 O.3     1  UNL1       -0.4797
      2 O          -3.5337    2.0603    0.5303 O.3     1  UNL1       -0.5033
      3 N           3.1592   -0.1452    0.4899 N.3     1  UNL1       -0.3018
      4 C           0.3127   -0.6956    0.6165 C.3     1  UNL1        0.0460
      5 C           1.2286   -1.3181   -0.4407 C.3     1  UNL1       -0.0082
      6 C           2.3478   -0.2717   -0.7444 C.3     1  UNL1        0.0181
      7 C          -1.0279   -1.4068    0.8961 C.3     1  UNL1        0.1312
      8 C           1.1242   -0.4352    1.9034 C.3     1  UNL1       -0.0264
      9 C          -0.2352    0.5819    0.0907 C.ar    1  UNL1        0.0115
     10 C           0.4690   -1.7926   -1.6917 C.3     1  UNL1       -0.0292
     11 C           1.7727    1.0862   -1.2902 C.3     1  UNL1       -0.0113
     12 C           2.4112    0.3651    1.6431 C.3     1  UNL1       -0.0002
     13 C           0.4214    1.4682   -0.7425 C.ar    1  UNL1       -0.0383
     14 C          -1.5167   -2.3081   -0.2248 C.2     1  UNL1       -0.0358
     15 C          -1.5479    0.7401    0.4801 C.ar    1  UNL1        0.1667
     16 C          -0.8343   -2.4672   -1.3734 C.2     1  UNL1       -0.0812
     17 C           4.4046    0.5895    0.2938 C.3     1  UNL1       -0.0125
     18 C          -0.2726    2.6233   -1.1029 C.ar    1  UNL1       -0.0546
     19 C          -2.2476    1.8768    0.1442 C.ar    1  UNL1        0.1588
     20 C          -2.8147   -3.0250    0.0178 C.3     1  UNL1       -0.0403
     21 C          -1.5915    2.8319   -0.6457 C.ar    1  UNL1       -0.0162
     22 H           1.6948   -2.2177   -0.0088 H       1  UNL1        0.0329
     23 H           2.9990   -0.6953   -1.5207 H       1  UNL1        0.0469
     24 H          -0.9541   -2.0118    1.8089 H       1  UNL1        0.0790
     25 H           1.3980   -1.4015    2.3485 H       1  UNL1        0.0287
     26 H           0.5238    0.0942    2.6545 H       1  UNL1        0.0287
     27 H           1.1084   -2.5004   -2.2337 H       1  UNL1        0.0311
     28 H           0.2652   -0.9727   -2.3886 H       1  UNL1        0.0311
     29 H           1.6620    0.9807   -2.3777 H       1  UNL1        0.0329
     30 H           2.4754    1.9106   -1.1346 H       1  UNL1        0.0329
     31 H           2.1694    1.4276    1.5160 H       1  UNL1        0.0427
     32 H           3.0337    0.2982    2.5442 H       1  UNL1        0.0427
     33 H          -1.2400   -3.1085   -2.1522 H       1  UNL1        0.0573
     34 H           5.0484    0.4824    1.1742 H       1  UNL1        0.0391
     35 H           4.2474    1.6592    0.1244 H       1  UNL1        0.0391
     36 H           4.9684    0.1830   -0.5530 H       1  UNL1        0.0391
     37 H           0.1875    3.3596   -1.7563 H       1  UNL1        0.0622
     38 H          -3.0819   -3.6879   -0.8119 H       1  UNL1        0.0276
     39 H          -3.6317   -2.3078    0.1452 H       1  UNL1        0.0276
     40 H          -2.7451   -3.6383    0.9220 H       1  UNL1        0.0276
     41 H          -2.1143    3.7382   -0.9430 H       1  UNL1        0.0655
     42 H          -3.8083    1.2891    1.0564 H       1  UNL1        0.2923
@<TRIPOS>BOND
     1     1     7    1
     2     1    15    1
     3     2    19    1
     4     2    42    1
     5     3     6    1
     6     3    12    1
     7     3    17    1
     8     4     5    1
     9     4     7    1
    10     4     8    1
    11     4     9    1
    12     5     6    1
    13     5    10    1
    14     5    22    1
    15     6    11    1
    16     6    23    1
    17     7    14    1
    18     7    24    1
    19     8    12    1
    20     8    25    1
    21     8    26    1
    22     9    13   ar
    23     9    15   ar
    24    10    16    1
    25    10    27    1
    26    10    28    1
    27    11    13    1
    28    11    29    1
    29    11    30    1
    30    12    31    1
    31    12    32    1
    32    13    18   ar
    33    14    16    2
    34    14    20    1
    35    15    19   ar
    36    16    33    1
    37    17    34    1
    38    17    35    1
    39    17    36    1
    40    18    21   ar
    41    18    37    1
    42    19    21   ar
    43    20    38    1
    44    20    39    1
    45    20    40    1
    46    21    41    1
@<TRIPOS>MOLECULE
927723
 26 26 0 0 0
SMALL
GASTEIGER

@<TRIPOS>ATOM
      1 O          -1.2594   -2.6531   -0.2614 O.2     1  LEU1       -0.2738
      2 O          -1.1799    2.6732   -0.3594 O.2     2  GLY2       -0.2741
      3 N          -0.1644    0.6603   -0.8263 N.am    1  LEU1       -0.3027
      4 N          -2.1891   -0.6322    0.3237 N.am    2  GLY2       -0.3052
      5 CA          0.1381   -0.6984   -0.4038 C.3     1  LEU1        0.0996
      6 CB          1.0579   -0.7418    0.8071 C.3     1  LEU1       -0.0236
      7 CG          2.4256   -0.0774    0.5674 C.3     1  LEU1       -0.0446
      8 C          -1.1661   -1.4320   -0.1483 C.2     1  LEU1        0.2338
      9 CD1         3.1759   -0.6987   -0.6116 C.3     1  LEU1       -0.0626
     10 CD2         2.2414    1.4234    0.3303 C.3     1  LEU1       -0.0626
     11 CA         -1.9712    0.7208    0.7886 C.3     2  GLY2        0.0882
     12 C          -1.1087    1.4559   -0.2061 C.2     2  GLY2        0.2308
     13 HA          0.5981   -1.1894   -1.2682 H       1  LEU1        0.0594
     14 HB1         0.5846   -0.2788    1.6811 H       1  LEU1        0.0290
     15 HB2         1.2244   -1.7906    1.0874 H       1  LEU1        0.0290
     16 HG          3.0235   -0.2165    1.4768 H       1  LEU1        0.0296
     17 H           0.4004    1.0753   -1.5598 H       1  LEU1        0.1495
     18 HD11        2.6994   -0.4859   -1.5735 H       1  LEU1        0.0232
     19 HD12        3.2496   -1.7850   -0.4965 H       1  LEU1        0.0232
     20 HD13        4.1954   -0.3001   -0.6606 H       1  LEU1        0.0232
     21 HD21        2.0741    1.6934   -0.7141 H       1  LEU1        0.0232
     22 HD22        3.1786    1.9293    0.5973 H       1  LEU1        0.0232
     23 HD23        1.4724    1.8601    0.9746 H       1  LEU1        0.0232
     24 HA1        -1.4872    0.6961    1.7678 H       2  GLY2        0.0558
     25 HA2        -2.9461    1.2098    0.8642 H       2  GLY2        0.0558
     26 H          -3.0741   -1.0775    0.5460 H       2  GLY2        0.1492
@<TRIPOS>BOND
     1     1     8    2
     2     2    12    2
     3     3     5    1
     4     3    12   am
     5     3    17    1
     6     4     8   am
     7     4    11    1
     8     4    26    1
     9     5     6    1
    10     5     8    1
    11     5    13    1
    12     6     7    1
    13     6    14    1
    14     6    15    1
    15     7     9    1
    16     7    10    1
    17     7    16    1
    18     9    18    1
    19     9    19    1
    20     9    20    1
    21    10    21    1
    22    10    22    1
    23    10    23    1
    24    11    12    1
    25    11    24    1
    26    11    25    1
@<TRIPOS>MOLECULE
5362456
 41 45 0 0 0
SMALL
GASTEIGER

@<TRIPOS>ATOM
      1 O           1.9496    1.0584    1.1771 O.3     1  UNL1       -0.4840
      2 O           4.0678   -0.8422    0.5134 O.3     1  UNL1       -0.5033
      3 N          -2.9130   -0.6732    0.5378 N.3     1  UNL1       -0.3018
      4 C          -0.3849    0.7571    0.6179 C.3     1  UNL1        0.0418
      5 C          -1.5081    1.1056   -0.3624 C.3     1  UNL1       -0.0119
      6 C          -2.2427   -0.2255   -0.7078 C.3     1  UNL1        0.0178
      7 C           0.7173    1.8031    0.8685 C.3     1  UNL1        0.1104
      8 C          -1.0257    0.2241    1.9186 C.3     1  UNL1       -0.0267
      9 C           0.4964   -0.2936    0.0420 C.ar    1  UNL1        0.0112
     10 C          -1.0155    1.8985   -1.5772 C.3     1  UNL1       -0.0477
     11 C           1.0107    2.7294   -0.3295 C.3     1  UNL1       -0.0149
     12 C          -1.2925   -1.2866   -1.3665 C.3     1  UNL1       -0.0113
     13 C          -2.0011   -0.9389    1.6560 C.3     1  UNL1       -0.0002
     14 C          -0.2345    3.1282   -1.1127 C.3     1  UNL1       -0.0494
     15 C           0.1126   -1.2967   -0.8258 C.ar    1  UNL1       -0.0383
     16 C           1.7993   -0.1072    0.4601 C.ar    1  UNL1        0.1662
     17 C          -3.8434   -1.7782    0.3335 C.3     1  UNL1       -0.0125
     18 C           1.1003   -2.2024   -1.2124 C.ar    1  UNL1       -0.0546
     19 C           2.7854   -0.9979    0.1039 C.ar    1  UNL1        0.1588
     20 C           2.4220   -2.0621   -0.7345 C.ar    1  UNL1       -0.0162
     21 H          -2.2232    1.7688    0.1496 H       1  UNL1        0.0326
     22 H          -3.0331    0.0079   -1.4338 H       1  UNL1        0.0469
     23 H           0.4719    2.4202    1.7414 H       1  UNL1        0.0742
     24 H          -1.5741    1.0426    2.4042 H       1  UNL1        0.0287
     25 H          -0.2655   -0.1082    2.6373 H       1  UNL1        0.0287
     26 H          -1.8755    2.2193   -2.1768 H       1  UNL1        0.0269
     27 H          -0.3846    1.2889   -2.2334 H       1  UNL1        0.0269
     28 H           1.7239    2.2553   -1.0166 H       1  UNL1        0.0301
     29 H           1.5250    3.6276    0.0343 H       1  UNL1        0.0301
     30 H          -1.2235   -1.0467   -2.4360 H       1  UNL1        0.0329
     31 H          -1.7174   -2.2933   -1.3053 H       1  UNL1        0.0329
     32 H          -1.4361   -1.8640    1.4866 H       1  UNL1        0.0427
     33 H          -2.5828   -1.0991    2.5725 H       1  UNL1        0.0427
     34 H           0.0602    3.7235   -1.9845 H       1  UNL1        0.0267
     35 H          -0.8747    3.7662   -0.4917 H       1  UNL1        0.0267
     36 H          -3.3387   -2.7244    0.1146 H       1  UNL1        0.0391
     37 H          -4.5389   -1.5579   -0.4837 H       1  UNL1        0.0391
     38 H          -4.4560   -1.9265    1.2301 H       1  UNL1        0.0391
     39 H           0.8648   -3.0133   -1.8965 H       1  UNL1        0.0622
     40 H           3.1699   -2.7844   -1.0546 H       1  UNL1        0.0655
     41 H           4.6041   -1.5668    0.1482 H       1  UNL1        0.2923
@<TRIPOS>BOND
     1     1     7    1
     2     1    16    1
     3     2    19    1
     4     2    41    1
     5     3     6    1
     6     3    13    1
     7     3    17    1
     8     4     5    1
     9     4     7    1
    10     4     8    1
    11     4     9    1
    12     5     6    1
    13     5    10    1
    14     5    21    1
    15     6    12    1
    16     6    22    1
    17     7    11    1
    18     7    23    1
    19     8    13    1
    20     8    24    1
    21     8    25    1
    22     9    15   ar
    23     9    16   ar
    24    10    14    1
    25    10    26    1
    26    10    27    1
    27    11    14    1
    28    11    28    1
    29    11    29    1
    30    12    15    1
    31    12    30    1
    32    12    31    1
    33    13    32    1
    34    13    33    1
    35    14    34    1
    36    14    35    1
    37    15    18   ar
    38    16    19   ar
    39    17    36    1
    40    17    37    1
    41    17    38    1
    42    18    20   ar
    43    18    39    1
    44    19    20   ar
    45    20    40    1
@<TRIPOS>MOLECULE
5362507
 53 58 0 0 0
SMALL
GASTEIGER

@<TRIPOS>ATOM
      1 O          -0.0873   -0.8924    1.2558 O.3     1  UNL1       -0.4811
      2 O          -0.4299   -3.1249   -0.0551 O.3     1  UNL1       -0.3841
      3 O          -2.1595    0.9988    0.5075 O.3     1  UNL1       -0.4837
      4 N           4.8770    0.5959    0.4437 N.3     1  UNL1       -0.3015
      5 C           2.2761   -0.6647    0.7133 C.3     1  UNL1        0.0480
      6 C           3.3039   -1.1047   -0.3404 C.3     1  UNL1        0.0064
      7 C           4.1061    0.1730   -0.7504 C.3     1  UNL1        0.0213
      8 C           1.1539   -1.6622    1.0840 C.3     1  UNL1        0.1399
      9 C           3.0150   -0.1113    1.9478 C.3     1  UNL1       -0.0263
     10 C           1.4116    0.3948    0.1139 C.ar    1  UNL1        0.0116
     11 C           3.1954    1.2852   -1.3756 C.3     1  UNL1       -0.0110
     12 C           4.0420    0.9750    1.5879 C.3     1  UNL1       -0.0001
     13 C           1.8049    1.3524   -0.8036 C.ar    1  UNL1       -0.0383
     14 C           0.9561   -2.8136    0.0637 C.3     1  UNL1        0.1110
     15 C           2.6474   -1.8300   -1.4872 C.2     1  UNL1       -0.0799
     16 C           0.1023    0.2398    0.5105 C.ar    1  UNL1        0.1666
     17 C           1.5618   -2.5944   -1.2972 C.2     1  UNL1       -0.0559
     18 C           0.8352    2.2610   -1.2308 C.ar    1  UNL1       -0.0546
     19 C           5.8808    1.6151    0.1558 C.3     1  UNL1       -0.0124
     20 C          -0.8702    1.1290    0.1092 C.ar    1  UNL1        0.1627
     21 C          -0.4892    2.1597   -0.7595 C.ar    1  UNL1       -0.0160
     22 C          -3.1726    1.4383   -0.3997 C.3     1  UNL1        0.1148
     23 C          -4.4581    0.7104   -0.1925 C.ar    1  UNL1       -0.0104
     24 C          -4.7115   -0.4700   -0.8910 C.ar    1  UNL1       -0.0554
     25 C          -5.4065    1.2104    0.6996 C.ar    1  UNL1       -0.0554
     26 C          -5.9138   -1.1505   -0.6976 C.ar    1  UNL1       -0.0614
     27 C          -6.6086    0.5300    0.8932 C.ar    1  UNL1       -0.0614
     28 C          -6.8623   -0.6504    0.1946 C.ar    1  UNL1       -0.0617
     29 H           4.0082   -1.8236    0.1051 H       1  UNL1        0.0368
     30 H           4.8368   -0.1223   -1.5161 H       1  UNL1        0.0472
     31 H           1.3526   -2.1194    2.0619 H       1  UNL1        0.0772
     32 H           3.5395   -0.9391    2.4439 H       1  UNL1        0.0287
     33 H           2.3110    0.2976    2.6841 H       1  UNL1        0.0287
     34 H           3.0914    1.0583   -2.4454 H       1  UNL1        0.0329
     35 H           3.6656    2.2716   -1.3158 H       1  UNL1        0.0329
     36 H           3.5276    1.9257    1.4004 H       1  UNL1        0.0427
     37 H           4.6766    1.1384    2.4679 H       1  UNL1        0.0427
     38 H           1.4421   -3.7130    0.4639 H       1  UNL1        0.0675
     39 H           3.0898   -1.7631   -2.4763 H       1  UNL1        0.0573
     40 H           1.1450   -3.1378   -2.1404 H       1  UNL1        0.0596
     41 H           1.0889    3.0393   -1.9456 H       1  UNL1        0.0622
     42 H           5.4437    2.5914   -0.0759 H       1  UNL1        0.0391
     43 H           6.5167    1.3114   -0.6830 H       1  UNL1        0.0391
     44 H           6.5458    1.7437    1.0174 H       1  UNL1        0.0391
     45 H          -1.1980    2.9066   -1.1072 H       1  UNL1        0.0655
     46 H          -0.7720   -3.2801    0.8419 H       1  UNL1        0.2104
     47 H          -2.8660    1.2894   -1.4447 H       1  UNL1        0.0748
     48 H          -3.3323    2.5149   -0.2572 H       1  UNL1        0.0748
     49 H          -3.9793   -0.8716   -1.5866 H       1  UNL1        0.0621
     50 H          -5.2201    2.1279    1.2515 H       1  UNL1        0.0621
     51 H          -6.1109   -2.0701   -1.2408 H       1  UNL1        0.0618
     52 H          -7.3470    0.9188    1.5884 H       1  UNL1        0.0618
     53 H          -7.7981   -1.1804    0.3456 H       1  UNL1        0.0618
@<TRIPOS>BOND
     1     1     8    1
     2     1    16    1
     3     2    14    1
     4     2    46    1
     5     3    20    1
     6     3    22    1
     7     4     7    1
     8     4    12    1
     9     4    19    1
    10     5     6    1
    11     5     8    1
    12     5     9    1
    13     5    10    1
    14     6     7    1
    15     6    15    1
    16     6    29    1
    17     7    11    1
    18     7    30    1
    19     8    14    1
    20     8    31    1
    21     9    12    1
    22     9    32    1
    23     9    33    1
    24    10    13   ar
    25    10    16   ar
    26    11    13    1
    27    11    34    1
    28    11    35    1
    29    12    36    1
    30    12    37    1
    31    13    18   ar
    32    14    17    1
    33    14    38    1
    34    15    17    2
    35    15    39    1
    36    16    20   ar
    37    17    40    1
    38    18    21   ar
    39    18    41    1
    40    19    42    1
    41    19    43    1
    42    19    44    1
    43    20    21   ar
    44    21    45    1
    45    22    23    1
    46    22    47    1
    47    22    48    1
    48    23    24   ar
    49    23    25   ar
    50    24    26   ar
    51    24    49    1
    52    25    27   ar
    53    25    50    1
    54    26    28   ar
    55    26    51    1
    56    27    28   ar
    57    27    52    1
    58    28    53    1
@<TRIPOS>MOLECULE
5488391
 44 48 0 0 0
SMALL
GASTEIGER

@<TRIPOS>ATOM
      1 O          -0.9008   -1.7303    1.2983 O.3     1  UNL1       -0.4811
      2 O          -0.7897   -3.7028   -0.4094 O.3     1  UNL1       -0.3841
      3 O          -3.5234   -0.5205    1.2057 O.3     1  UNL1       -0.5031
      4 O          -4.4789    1.5395   -1.2965 O.3     1  UNL1       -0.3903
      5 N           3.1947    1.3865    0.2829 N.3     1  UNL1       -0.3015
      6 C           1.1637   -0.6687    0.5619 C.3     1  UNL1        0.0480
      7 C           2.0813   -0.5731   -0.6666 C.3     1  UNL1        0.0064
      8 C           2.3912    0.9439   -0.8823 C.3     1  UNL1        0.0213
      9 C           0.4637   -2.0208    0.8334 C.3     1  UNL1        0.1399
     10 C           1.9055   -0.1215    1.7974 C.3     1  UNL1       -0.0263
     11 C          -0.0623    0.1414    0.2978 C.ar    1  UNL1        0.0116
     12 C           1.1019    1.7926   -1.1552 C.3     1  UNL1       -0.0110
     13 C           2.4917    1.2809    1.5654 C.3     1  UNL1       -0.0001
     14 C          -0.1290    1.3135   -0.4338 C.ar    1  UNL1       -0.0380
     15 C           0.4429   -2.9875   -0.3794 C.3     1  UNL1        0.1110
     16 C           1.4823   -1.2688   -1.8622 C.2     1  UNL1       -0.0799
     17 C          -1.1812   -0.4896    0.7931 C.ar    1  UNL1        0.1667
     18 C           0.7177   -2.3617   -1.7209 C.2     1  UNL1       -0.0559
     19 C          -1.3805    1.9205   -0.5511 C.ar    1  UNL1       -0.0492
     20 C           3.7910    2.7070    0.1093 C.3     1  UNL1       -0.0124
     21 C          -2.4253    0.0941    0.6972 C.ar    1  UNL1        0.1642
     22 C          -2.5168    1.3222    0.0297 C.ar    1  UNL1        0.0231
     23 C          -3.8398    2.0031   -0.1149 C.3     1  UNL1        0.0728
     24 H           3.0305   -1.0916   -0.4628 H       1  UNL1        0.0368
     25 H           3.0356    1.0309   -1.7681 H       1  UNL1        0.0472
     26 H           0.9507   -2.5464    1.6651 H       1  UNL1        0.0772
     27 H           2.7262   -0.8075    2.0471 H       1  UNL1        0.0287
     28 H           1.2480   -0.0892    2.6757 H       1  UNL1        0.0287
     29 H           0.8894    1.7262   -2.2309 H       1  UNL1        0.0329
     30 H           1.2648    2.8532   -0.9399 H       1  UNL1        0.0329
     31 H           1.6967    2.0333    1.6402 H       1  UNL1        0.0427
     32 H           3.1899    1.4903    2.3856 H       1  UNL1        0.0427
     33 H           1.2321   -3.7366   -0.2337 H       1  UNL1        0.0675
     34 H           1.7113   -0.8994   -2.8570 H       1  UNL1        0.0573
     35 H           0.3423   -2.8615   -2.6093 H       1  UNL1        0.0596
     36 H          -1.4789    2.8439   -1.1168 H       1  UNL1        0.0625
     37 H           3.0537    3.5154    0.1382 H       1  UNL1        0.0391
     38 H           4.3362    2.7679   -0.8389 H       1  UNL1        0.0391
     39 H           4.5248    2.8966    0.9009 H       1  UNL1        0.0391
     40 H          -0.9132   -4.1081    0.4659 H       1  UNL1        0.2104
     41 H          -4.4944    1.8159    0.7428 H       1  UNL1        0.0608
     42 H          -3.7201    3.0893   -0.1903 H       1  UNL1        0.0608
     43 H          -3.2450   -1.3581    1.6152 H       1  UNL1        0.2923
     44 H          -4.4886    0.5673   -1.2752 H       1  UNL1        0.2098
@<TRIPOS>BOND
     1     1     9    1
     2     1    17    1
     3     2    15    1
     4     2    40    1
     5     3    21    1
     6     3    43    1
     7     4    23    1
     8     4    44    1
     9     5     8    1
    10     5    13    1
    11     5    20    1
    12     6     7    1
    13     6     9    1
    14     6    10    1
    15     6    11    1
    16     7     8    1
    17     7    16    1
    18     7    24    1
    19     8    12    1
    20     8    25    1
    21     9    15    1
    22     9    26    1
    23    10    13    1
    24    10    27    1
    25    10    28    1
    26    11    14   ar
    27    11    17   ar
    28    12    14    1
    29    12    29    1
    30    12    30    1
    31    13    31    1
    32    13    32    1
    33    14    19   ar
    34    15    18    1
    35    15    33    1
    36    16    18    2
    37    16    34    1
    38    17    21   ar
    39    18    35    1
    40    19    22   ar
    41    19    36    1
    42    20    37    1
    43    20    38    1
    44    20    39    1
    45    21    22   ar
    46    22    23    1
    47    23    41    1
    48    23    42    1
@<TRIPOS>MOLECULE
5492619
 46 50 0 0 0
SMALL
GASTEIGER

@<TRIPOS>ATOM
      1 O          -1.6146   -0.4099    1.3175 O.3     1  UNL1       -0.4811
      2 O          -2.3582   -2.5881    0.0839 O.3     1  UNL1       -0.3721
      3 O          -3.3489    1.7850    0.5394 O.3     1  UNL1       -0.4914
      4 N           3.5136    0.1844    0.3861 N.3     1  UNL1       -0.3015
      5 C           0.7419   -0.6050    0.7337 C.3     1  UNL1        0.0480
      6 C           1.6587   -1.2446   -0.3202 C.3     1  UNL1        0.0064
      7 C           2.6584   -0.1352   -0.7826 C.3     1  UNL1        0.0213
      8 C          -0.5263   -1.3850    1.1524 C.3     1  UNL1        0.1401
      9 C           1.5884   -0.1504    1.9390 C.3     1  UNL1       -0.0263
     10 C           0.0586    0.5687    0.1133 C.ar    1  UNL1        0.0116
     11 C           1.9382    1.0976   -1.4297 C.3     1  UNL1       -0.0110
     12 C           2.7781    0.7336    1.5296 C.3     1  UNL1       -0.0001
     13 C          -0.9374   -2.5149    0.1724 C.3     1  UNL1        0.1140
     14 C           0.5910    1.4179   -0.8399 C.ar    1  UNL1       -0.0383
     15 C           0.8657   -1.8801   -1.4336 C.2     1  UNL1       -0.0799
     16 C          -1.2497    0.6512    0.5338 C.ar    1  UNL1        0.1666
     17 C          -0.3303   -2.4420   -1.2034 C.2     1  UNL1       -0.0557
     18 C          -0.2181    2.4661   -1.2819 C.ar    1  UNL1       -0.0546
     19 C           4.6704    1.0084    0.0512 C.3     1  UNL1       -0.0124
     20 C          -2.0644    1.6814    0.1184 C.ar    1  UNL1        0.1618
     21 C          -1.5307    2.6062   -0.7883 C.ar    1  UNL1       -0.0160
     22 C          -2.7732   -3.7358   -0.6414 C.3     1  UNL1        0.0374
     23 C          -4.1110    2.8908    0.0503 C.3     1  UNL1        0.0790
     24 H           2.2389   -2.0601    0.1376 H       1  UNL1        0.0368
     25 H           3.3128   -0.5730   -1.5490 H       1  UNL1        0.0472
     26 H          -0.3896   -1.8396    2.1423 H       1  UNL1        0.0772
     27 H           1.9741   -1.0408    2.4536 H       1  UNL1        0.0287
     28 H           0.9791    0.3939    2.6720 H       1  UNL1        0.0287
     29 H           1.7759    0.8608   -2.4900 H       1  UNL1        0.0329
     30 H           2.5705    1.9905   -1.4083 H       1  UNL1        0.0329
     31 H           2.4295    1.7523    1.3193 H       1  UNL1        0.0427
     32 H           3.4486    0.8117    2.3946 H       1  UNL1        0.0427
     33 H          -0.5765   -3.4545    0.6157 H       1  UNL1        0.0678
     34 H           1.2964   -1.9217   -2.4293 H       1  UNL1        0.0573
     35 H          -0.8049   -2.9263   -2.0494 H       1  UNL1        0.0596
     36 H           0.1490    3.1652   -2.0286 H       1  UNL1        0.0622
     37 H           4.4013    2.0378   -0.2053 H       1  UNL1        0.0391
     38 H           5.2285    0.5762   -0.7867 H       1  UNL1        0.0391
     39 H           5.3645    1.0464    0.8984 H       1  UNL1        0.0391
     40 H          -2.0961    3.4454   -1.1818 H       1  UNL1        0.0655
     41 H          -2.1669   -4.6199   -0.4183 H       1  UNL1        0.0524
     42 H          -2.7980   -3.5359   -1.7161 H       1  UNL1        0.0524
     43 H          -3.8024   -3.9574   -0.3414 H       1  UNL1        0.0524
     44 H          -3.6771    3.8462    0.3641 H       1  UNL1        0.0660
     45 H          -5.1058    2.8238    0.5025 H       1  UNL1        0.0660
     46 H          -4.2452    2.8343   -1.0351 H       1  UNL1        0.0660
@<TRIPOS>BOND
     1     1     8    1
     2     1    16    1
     3     2    13    1
     4     2    22    1
     5     3    20    1
     6     3    23    1
     7     4     7    1
     8     4    12    1
     9     4    19    1
    10     5     6    1
    11     5     8    1
    12     5     9    1
    13     5    10    1
    14     6     7    1
    15     6    15    1
    16     6    24    1
    17     7    11    1
    18     7    25    1
    19     8    13    1
    20     8    26    1
    21     9    12    1
    22     9    27    1
    23     9    28    1
    24    10    14   ar
    25    10    16   ar
    26    11    14    1
    27    11    29    1
    28    11    30    1
    29    12    31    1
    30    12    32    1
    31    13    17    1
    32    13    33    1
    33    14    18   ar
    34    15    17    2
    35    15    34    1
    36    16    20   ar
    37    17    35    1
    38    18    21   ar
    39    18    36    1
    40    19    37    1
    41    19    38    1
    42    19    39    1
    43    20    21   ar
    44    21    40    1
    45    22    41    1
    46    22    42    1
    47    22    43    1
    48    23    44    1
    49    23    45    1
    50    23    46    1
@<TRIPOS>MOLECULE
16217592
 45 49 0 0 0
SMALL
GASTEIGER

@<TRIPOS>ATOM
      1 O           1.4247   -0.6448    1.0339 O.3     1  UNL1       -0.4799
      2 O           2.9965    0.6056   -0.6350 O.3     1  UNL1       -0.4536
      3 O           1.6359   -3.5086    0.6039 O.3     1  UNL1       -0.5033
      4 O           4.0380    1.9859    0.8970 O.2     1  UNL1       -0.2511
      5 N          -3.3428    1.4796    0.5077 N.3     1  UNL1       -0.3015
      6 C          -0.5467    0.7006    0.5490 C.3     1  UNL1        0.0491
      7 C          -1.1442    1.5818   -0.5586 C.3     1  UNL1        0.0064
      8 C          -2.6291    1.1297   -0.7443 C.3     1  UNL1        0.0213
      9 C           0.9876    0.7284    0.7413 C.3     1  UNL1        0.1509
     10 C          -1.3176    0.9382    1.8625 C.3     1  UNL1       -0.0263
     11 C          -0.6698   -0.7278    0.1318 C.ar    1  UNL1        0.0116
     12 C          -2.7555   -0.3713   -1.1781 C.3     1  UNL1       -0.0110
     13 C          -2.8382    0.7829    1.6952 C.3     1  UNL1       -0.0001
     14 C          -1.6987   -1.2798   -0.6097 C.ar    1  UNL1       -0.0383
     15 C           1.7741    1.3173   -0.4589 C.3     1  UNL1        0.1587
     16 C          -0.3113    1.5361   -1.8142 C.2     1  UNL1       -0.0788
     17 C           0.4524   -1.4402    0.4904 C.ar    1  UNL1        0.1664
     18 C           1.0215    1.3953   -1.7606 C.2     1  UNL1       -0.0439
     19 C          -4.7936    1.3668    0.4001 C.3     1  UNL1       -0.0124
     20 C          -1.6243   -2.6466   -0.8830 C.ar    1  UNL1       -0.0546
     21 C           0.5447   -2.7915    0.2394 C.ar    1  UNL1        0.1588
     22 C          -0.5175   -3.3995   -0.4419 C.ar    1  UNL1       -0.0162
     23 C           4.0522    1.0496    0.1093 C.2     1  UNL1        0.3046
     24 C           5.2616    0.2121   -0.1770 C.3     1  UNL1        0.0333
     25 H          -1.1436    2.6344   -0.2369 H       1  UNL1        0.0368
     26 H          -3.0673    1.7413   -1.5451 H       1  UNL1        0.0472
     27 H           1.2523    1.3151    1.6305 H       1  UNL1        0.0783
     28 H          -1.1060    1.9569    2.2150 H       1  UNL1        0.0287
     29 H          -0.9774    0.2576    2.6536 H       1  UNL1        0.0287
     30 H          -2.6527   -0.4044   -2.2713 H       1  UNL1        0.0329
     31 H          -3.7474   -0.7741   -0.9512 H       1  UNL1        0.0329
     32 H          -3.1025   -0.2815    1.6676 H       1  UNL1        0.0427
     33 H          -3.3161    1.1940    2.5933 H       1  UNL1        0.0427
     34 H           1.9921    2.3710   -0.2298 H       1  UNL1        0.0817
     35 H          -0.7989    1.6623   -2.7758 H       1  UNL1        0.0574
     36 H           1.5917    1.4136   -2.6850 H       1  UNL1        0.0607
     37 H          -5.1641    1.9124   -0.4747 H       1  UNL1        0.0391
     38 H          -5.2733    1.8216    1.2743 H       1  UNL1        0.0391
     39 H          -5.1374    0.3298    0.3336 H       1  UNL1        0.0391
     40 H          -2.4047   -3.1347   -1.4607 H       1  UNL1        0.0622
     41 H          -0.4830   -4.4617   -0.6735 H       1  UNL1        0.0655
     42 H           1.5096   -4.4334    0.3304 H       1  UNL1        0.2923
     43 H           5.0617   -0.8290    0.0886 H       1  UNL1        0.0342
     44 H           6.1018    0.5702    0.4248 H       1  UNL1        0.0342
     45 H           5.5287    0.2960   -1.2334 H       1  UNL1        0.0342
@<TRIPOS>BOND
     1     1     9    1
     2     1    17    1
     3     2    15    1
     4     2    23    1
     5     3    21    1
     6     3    42    1
     7     4    23    2
     8     5     8    1
     9     5    13    1
    10     5    19    1
    11     6     7    1
    12     6     9    1
    13     6    10    1
    14     6    11    1
    15     7     8    1
    16     7    16    1
    17     7    25    1
    18     8    12    1
    19     8    26    1
    20     9    15    1
    21     9    27    1
    22    10    13    1
    23    10    28    1
    24    10    29    1
    25    11    14   ar
    26    11    17   ar
    27    12    14    1
    28    12    30    1
    29    12    31    1
    30    13    32    1
    31    13    33    1
    32    14    20   ar
    33    15    18    1
    34    15    34    1
    35    16    18    2
    36    16    35    1
    37    17    21   ar
    38    18    36    1
    39    19    37    1
    40    19    38    1
    41    19    39    1
    42    20    22   ar
    43    20    40    1
    44    21    22   ar
    45    22    41    1
    46    23    24    1
    47    24    43    1
    48    24    44    1
    49    24    45    1
@<TRIPOS>MOLECULE
71750840
 60 65 0 0 0
SMALL
GASTEIGER

@<TRIPOS>ATOM
      1 O           0.6133    1.2840    0.6527 O.3     1  UNL1       -0.4811
      2 O          -1.1929    0.1432   -0.8490 O.3     1  UNL1       -0.3377
      3 O           1.2480    3.9076   -0.4173 O.3     1  UNL1       -0.5033
      4 O          -3.3020   -0.8207   -0.5861 O.3     1  UNL1       -0.3315
      5 O          -2.0699    2.4522    0.5443 O.3     1  UNL1       -0.3841
      6 O          -4.1186    1.3938    2.0878 O.3     1  UNL1       -0.3864
      7 O          -6.4208    0.3926    0.9252 O.3     1  UNL1       -0.3860
      8 O          -6.5134   -2.1218   -0.0294 O.3     1  UNL1       -0.4788
      9 O          -4.9498   -2.4416   -1.6568 O.2     1  UNL1       -0.2480
     10 N           4.5855   -2.1141    1.0923 N.3     1  UNL1       -0.3015
     11 C           2.1313   -0.6206    0.6781 C.3     1  UNL1        0.0480
     12 C           2.4882   -1.8698   -0.1417 C.3     1  UNL1        0.0064
     13 C           0.6477   -0.1848    0.7160 C.3     1  UNL1        0.1402
     14 C           4.0460   -1.8951   -0.2715 C.3     1  UNL1        0.0213
     15 C           2.7558   -0.7355    2.0828 C.3     1  UNL1       -0.0263
     16 C           2.6733    0.5775   -0.0291 C.ar    1  UNL1        0.0116
     17 C           4.6127   -0.6344   -1.0106 C.3     1  UNL1       -0.0110
     18 C           4.2618   -1.0429    2.0398 C.3     1  UNL1       -0.0001
     19 C          -0.2330   -0.8089   -0.3978 C.3     1  UNL1        0.1175
     20 C           3.8423    0.6352   -0.7662 C.ar    1  UNL1       -0.0383
     21 C           1.7473   -1.9030   -1.4540 C.2     1  UNL1       -0.0799
     22 C           1.7912    1.6315    0.0483 C.ar    1  UNL1        0.1663
     23 C           0.5100   -1.3978   -1.5676 C.2     1  UNL1       -0.0556
     24 C           6.0106   -2.4279    1.1095 C.3     1  UNL1       -0.0124
     25 C           4.1728    1.8639   -1.3404 C.ar    1  UNL1       -0.0546
     26 C           2.0993    2.8560   -0.5026 C.ar    1  UNL1        0.1588
     27 C           3.3142    2.9714   -1.1902 C.ar    1  UNL1       -0.0162
     28 C          -2.3716    0.1167   -0.0438 C.3     1  UNL1        0.1893
     29 C          -2.9739    1.5259   -0.0488 C.3     1  UNL1        0.1342
     30 C          -4.3178    1.5690    0.6820 C.3     1  UNL1        0.1145
     31 C          -5.2380    0.4726    0.1381 C.3     1  UNL1        0.1201
     32 C          -4.5296   -0.8811    0.1358 C.3     1  UNL1        0.1859
     33 C          -5.3199   -1.8930   -0.6296 C.2     1  UNL1        0.3367
     34 H           2.1745   -2.7736    0.4024 H       1  UNL1        0.0368
     35 H           0.1981   -0.4471    1.6824 H       1  UNL1        0.0772
     36 H           4.3175   -2.7763   -0.8693 H       1  UNL1        0.0472
     37 H           2.2486   -1.5430    2.6280 H       1  UNL1        0.0287
     38 H           2.5983    0.1812    2.6657 H       1  UNL1        0.0287
     39 H           4.5615   -0.8381   -2.0889 H       1  UNL1        0.0329
     40 H           5.6701   -0.4731   -0.7791 H       1  UNL1        0.0329
     41 H           4.8213   -0.1289    1.8050 H       1  UNL1        0.0427
     42 H           4.5703   -1.3400    3.0501 H       1  UNL1        0.0427
     43 H          -0.7575   -1.6760    0.0326 H       1  UNL1        0.0679
     44 H           2.2110   -2.3836   -2.3098 H       1  UNL1        0.0573
     45 H          -0.0096   -1.4823   -2.5178 H       1  UNL1        0.0596
     46 H           6.2386   -3.2468    0.4185 H       1  UNL1        0.0391
     47 H           6.3091   -2.7719    2.1063 H       1  UNL1        0.0391
     48 H           6.6396   -1.5703    0.8510 H       1  UNL1        0.0391
     49 H           5.0798    1.9688   -1.9297 H       1  UNL1        0.0622
     50 H           3.5940    3.9153   -1.6526 H       1  UNL1        0.0655
     51 H          -2.1162   -0.1683    0.9851 H       1  UNL1        0.0938
     52 H          -3.1232    1.8397   -1.0900 H       1  UNL1        0.0671
     53 H          -4.7855    2.5535    0.5724 H       1  UNL1        0.0648
     54 H           1.6437    4.6698   -0.8739 H       1  UNL1        0.2923
     55 H          -5.5317    0.7340   -0.8868 H       1  UNL1        0.0652
     56 H          -4.3502   -1.2827    1.1400 H       1  UNL1        0.0741
     57 H          -2.4878    3.3297    0.5149 H       1  UNL1        0.2101
     58 H          -3.7368    0.5158    2.2466 H       1  UNL1        0.2100
     59 H          -6.8391    1.2703    0.9145 H       1  UNL1        0.2100
     60 H          -7.0487   -2.7828   -0.5181 H       1  UNL1        0.2951
@<TRIPOS>BOND
     1     1    13    1
     2     1    22    1
     3     2    19    1
     4     2    28    1
     5     3    26    1
     6     3    54    1
     7     4    28    1
     8     4    32    1
     9     5    29    1
    10     5    57    1
    11     6    30    1
    12     6    58    1
    13     7    31    1
    14     7    59    1
    15     8    33    1
    16     8    60    1
    17     9    33    2
    18    10    14    1
    19    10    18    1
    20    10    24    1
    21    11    12    1
    22    11    13    1
    23    11    15    1
    24    11    16    1
    25    12    14    1
    26    12    21    1
    27    12    34    1
    28    13    19    1
    29    13    35    1
    30    14    17    1
    31    14    36    1
    32    15    18    1
    33    15    37    1
    34    15    38    1
    35    16    20   ar
    36    16    22   ar
    37    17    20    1
    38    17    39    1
    39    17    40    1
    40    18    41    1
    41    18    42    1
    42    19    23    1
    43    19    43    1
    44    20    25   ar
    45    21    23    2
    46    21    44    1
    47    22    26   ar
    48    23    45    1
    49    24    46    1
    50    24    47    1
    51    24    48    1
    52    25    27   ar
    53    25    49    1
    54    26    27   ar
    55    27    50    1
    56    28    29    1
    57    28    51    1
    58    29    30    1
    59    29    52    1
    60    30    31    1
    61    30    53    1
    62    31    32    1
    63    31    55    1
    64    32    33    1
    65    32    56    1
@<TRIPOS>MOLECULE
53327323
 50 54 0 0 0
SMALL
GASTEIGER

@<TRIPOS>ATOM
      1 O          -1.2242   -0.2111   -1.0241 O.3     1  UNL1       -0.4811
      2 O          -2.4962    1.4051    0.5849 O.3     1  UNL1       -0.3666
      3 O          -2.0238   -2.9492   -0.4801 O.3     1  UNL1       -0.5033
      4 O          -4.7278   -0.0938   -0.1888 O.3     1  UNL1       -0.3807
      5 N           3.8823    0.8967   -0.5608 N.3     1  UNL1       -0.3015
      6 C           0.9854    0.7141   -0.5844 C.3     1  UNL1        0.0480
      7 C           1.7567    1.4963    0.4897 C.3     1  UNL1        0.0064
      8 C           3.1160    0.7535    0.7007 C.3     1  UNL1        0.0213
      9 C          -0.5104    1.0521   -0.7853 C.3     1  UNL1        0.1401
     10 C           1.7841    0.7332   -1.9027 C.3     1  UNL1       -0.0263
     11 C           0.8106   -0.6906   -0.1094 C.ar    1  UNL1        0.0116
     12 C           2.9297   -0.7221    1.1953 C.3     1  UNL1       -0.0110
     13 C           3.2399    0.2724   -1.7217 C.3     1  UNL1       -0.0001
     14 C          -1.1532    1.8397    0.3863 C.3     1  UNL1        0.1145
     15 C           1.7053   -1.4137    0.6589 C.ar    1  UNL1       -0.0383
     16 C           0.9370    1.6751    1.7421 C.2     1  UNL1       -0.0799
     17 C          -0.4363   -1.1684   -0.4444 C.ar    1  UNL1        0.1663
     18 C          -0.3962    1.8121    1.6875 C.2     1  UNL1       -0.0557
     19 C           5.2786    0.4898   -0.4417 C.3     1  UNL1       -0.0124
     20 C           1.3496   -2.7231    0.9868 C.ar    1  UNL1       -0.0546
     21 C          -0.8062   -2.4598   -0.1395 C.ar    1  UNL1        0.1588
     22 C           0.1091   -3.2470    0.5709 C.ar    1  UNL1       -0.0162
     23 C          -3.3425    1.8383   -0.4699 C.3     1  UNL1        0.0719
     24 C          -4.7482    1.3282   -0.2175 C.3     1  UNL1        0.0707
     25 C          -6.0192   -0.6279    0.0671 C.3     1  UNL1        0.0365
     26 H           1.9736    2.5121    0.1258 H       1  UNL1        0.0368
     27 H           3.6746    1.2928    1.4784 H       1  UNL1        0.0472
     28 H          -0.6424    1.6457   -1.6994 H       1  UNL1        0.0772
     29 H           1.3072    0.1065   -2.6673 H       1  UNL1        0.0287
     30 H           1.7875    1.7584   -2.2970 H       1  UNL1        0.0287
     31 H           3.8155   -1.3309    0.9896 H       1  UNL1        0.0329
     32 H           2.8262   -0.6890    2.2884 H       1  UNL1        0.0329
     33 H           3.2776   -0.8216   -1.6499 H       1  UNL1        0.0427
     34 H           3.7896    0.5387   -2.6333 H       1  UNL1        0.0427
     35 H          -1.1714    2.9046    0.1105 H       1  UNL1        0.0678
     36 H           1.4436    1.7359    2.7002 H       1  UNL1        0.0573
     37 H          -0.9470    1.9855    2.6076 H       1  UNL1        0.0596
     38 H           5.7573    0.9815    0.4122 H       1  UNL1        0.0391
     39 H           5.8390    0.7994   -1.3311 H       1  UNL1        0.0391
     40 H           5.3998   -0.5924   -0.3317 H       1  UNL1        0.0391
     41 H           2.0137   -3.3388    1.5875 H       1  UNL1        0.0622
     42 H          -0.1444   -4.2686    0.8449 H       1  UNL1        0.0655
     43 H          -2.9992    1.4579   -1.4364 H       1  UNL1        0.0583
     44 H          -3.3574    2.9335   -0.5063 H       1  UNL1        0.0583
     45 H          -2.0914   -3.8681   -0.1685 H       1  UNL1        0.2923
     46 H          -5.1069    1.6971    0.7506 H       1  UNL1        0.0582
     47 H          -5.4210    1.6752   -1.0094 H       1  UNL1        0.0582
     48 H          -6.3848   -0.2973    1.0442 H       1  UNL1        0.0524
     49 H          -6.7204   -0.3304   -0.7186 H       1  UNL1        0.0524
     50 H          -5.9451   -1.7187    0.0737 H       1  UNL1        0.0524
@<TRIPOS>BOND
     1     1     9    1
     2     1    17    1
     3     2    14    1
     4     2    23    1
     5     3    21    1
     6     3    45    1
     7     4    24    1
     8     4    25    1
     9     5     8    1
    10     5    13    1
    11     5    19    1
    12     6     7    1
    13     6     9    1
    14     6    10    1
    15     6    11    1
    16     7     8    1
    17     7    16    1
    18     7    26    1
    19     8    12    1
    20     8    27    1
    21     9    14    1
    22     9    28    1
    23    10    13    1
    24    10    29    1
    25    10    30    1
    26    11    15   ar
    27    11    17   ar
    28    12    15    1
    29    12    31    1
    30    12    32    1
    31    13    33    1
    32    13    34    1
    33    14    18    1
    34    14    35    1
    35    15    20   ar
    36    16    18    2
    37    16    36    1
    38    17    21   ar
    39    18    37    1
    40    19    38    1
    41    19    39    1
    42    19    40    1
    43    20    22   ar
    44    20    41    1
    45    21    22   ar
    46    22    42    1
    47    23    24    1
    48    23    43    1
    49    23    44    1
    50    24    46    1
    51    24    47    1
    52    25    48    1
    53    25    49    1
    54    25    50    1
