@<TRIPOS>MOLECULE
44301701
 60 63 0 0 0
SMALL
GASTEIGER

@<TRIPOS>ATOM
      1 O           2.5111    1.3251    2.0477 O.2     1  UNL1       -0.2895
      2 O           4.7149   -0.6224    1.8188 O.3     1  UNL1       -0.4943
      3 O          -1.4904   -2.8556   -0.5327 O.3     1  UNL1       -0.4646
      4 O          -4.3846   -1.1265    2.3236 O.2     1  UNL1       -0.5021
      5 O          -3.0406   -1.8637   -1.9121 O.2     1  UNL1       -0.2452
      6 N          -0.8783    2.4307   -0.2254 N.3     1  UNL1       -0.2965
      7 N           1.5409    0.8735   -1.3244 N.pl3   1  UNL1       -0.3296
      8 C          -0.1491    1.3509    0.4506 C.3     1  UNL1        0.0394
      9 C           1.2706    1.5723   -0.0700 C.3     1  UNL1        0.1121
     10 C          -0.8125   -0.0021    0.1856 C.3     1  UNL1       -0.0275
     11 C           1.3692    3.0928   -0.2701 C.3     1  UNL1       -0.0101
     12 C          -2.2850    0.0424    0.6453 C.3     1  UNL1       -0.0007
     13 C          -3.0331    1.2556    0.0217 C.3     1  UNL1       -0.0213
     14 C          -0.0509    3.6182   -0.0394 C.3     1  UNL1        0.0017
     15 C          -2.2413    2.5593    0.2807 C.3     1  UNL1        0.0026
     16 C           2.3387    1.0303    0.8801 C.2     1  UNL1        0.1931
     17 C          -3.3170    1.0900   -1.4805 C.3     1  UNL1       -0.0513
     18 C           3.1504    0.0721    0.1428 C.ar    1  UNL1        0.0820
     19 C           2.6280    0.0316   -1.1469 C.ar    1  UNL1        0.0421
     20 C          -2.9711   -1.2679    0.3990 C.2     1  UNL1        0.0740
     21 C          -4.0615    2.2880   -2.0270 C.3     1  UNL1       -0.0650
     22 C           4.2290   -0.6836    0.5561 C.ar    1  UNL1        0.1324
     23 C           3.2023   -0.8069   -2.0845 C.ar    1  UNL1       -0.0399
     24 C          -2.5215   -2.0147   -0.8134 C.2     1  UNL1        0.3381
     25 C          -3.9284   -1.7611    1.1984 C.2     1  UNL1        0.0943
     26 C           4.8078   -1.5268   -0.3911 C.ar    1  UNL1       -0.0191
     27 C           4.2990   -1.5886   -1.7009 C.ar    1  UNL1       -0.0565
     28 C           5.8367   -1.4525    2.1307 C.3     1  UNL1        0.0788
     29 C          -0.9898   -3.6169   -1.6372 C.3     1  UNL1        0.0820
     30 C          -5.7436   -1.4436    2.5744 C.3     1  UNL1        0.0780
     31 H          -0.1584    1.5241    1.5383 H       1  UNL1        0.0488
     32 H          -0.2657   -0.7826    0.7295 H       1  UNL1        0.0287
     33 H          -0.7412   -0.2371   -0.8824 H       1  UNL1        0.0287
     34 H           1.6999    3.3436   -1.2857 H       1  UNL1        0.0303
     35 H           2.0648    3.5674    0.4309 H       1  UNL1        0.0303
     36 H          -2.2568    0.2122    1.7322 H       1  UNL1        0.0356
     37 H          -4.0001    1.3533    0.5356 H       1  UNL1        0.0319
     38 H          -0.1370    4.0188    0.9786 H       1  UNL1        0.0427
     39 H          -0.3055    4.4118   -0.7488 H       1  UNL1        0.0427
     40 H          -2.7360    3.4304   -0.1585 H       1  UNL1        0.0429
     41 H          -2.2262    2.7485    1.3635 H       1  UNL1        0.0429
     42 H           1.0363    1.0023   -2.1878 H       1  UNL1        0.1471
     43 H          -2.4094    0.9150   -2.0664 H       1  UNL1        0.0266
     44 H          -3.9882    0.2406   -1.6261 H       1  UNL1        0.0266
     45 H          -4.8986    2.5789   -1.3841 H       1  UNL1        0.0230
     46 H          -4.4728    2.0475   -3.0138 H       1  UNL1        0.0230
     47 H          -3.4051    3.1515   -2.1690 H       1  UNL1        0.0230
     48 H           2.8177   -0.8651   -3.0975 H       1  UNL1        0.0636
     49 H          -4.4041   -2.7145    1.0074 H       1  UNL1        0.1028
     50 H           5.6589   -2.1668   -0.1812 H       1  UNL1        0.0654
     51 H           4.7631   -2.2532   -2.4252 H       1  UNL1        0.0619
     52 H           6.0897   -1.2734    3.1807 H       1  UNL1        0.0660
     53 H           6.7144   -1.1786    1.5356 H       1  UNL1        0.0660
     54 H           5.5870   -2.5145    2.0349 H       1  UNL1        0.0660
     55 H          -0.1762   -4.2495   -1.2725 H       1  UNL1        0.0661
     56 H          -0.5958   -2.9480   -2.4083 H       1  UNL1        0.0661
     57 H          -1.7779   -4.2571   -2.0447 H       1  UNL1        0.0661
     58 H          -6.0766   -0.8578    3.4363 H       1  UNL1        0.0660
     59 H          -5.8605   -2.5047    2.8206 H       1  UNL1        0.0660
     60 H          -6.3755   -1.1792    1.7190 H       1  UNL1        0.0660
@<TRIPOS>BOND
     1     1    16    2
     2     2    22    1
     3     2    28    1
     4     3    24    1
     5     3    29    1
     6     4    25    1
     7     4    30    1
     8     5    24    2
     9     6     8    1
    10     6    14    1
    11     6    15    1
    12     7     9    1
    13     7    19    1
    14     7    42    1
    15     8     9    1
    16     8    10    1
    17     8    31    1
    18     9    11    1
    19     9    16    1
    20    10    12    1
    21    10    32    1
    22    10    33    1
    23    11    14    1
    24    11    34    1
    25    11    35    1
    26    12    13    1
    27    12    20    1
    28    12    36    1
    29    13    15    1
    30    13    17    1
    31    13    37    1
    32    14    38    1
    33    14    39    1
    34    15    40    1
    35    15    41    1
    36    16    18    1
    37    17    21    1
    38    17    43    1
    39    17    44    1
    40    18    19   ar
    41    18    22   ar
    42    19    23   ar
    43    20    24    1
    44    20    25    2
    45    21    45    1
    46    21    46    1
    47    21    47    1
    48    22    26   ar
    49    23    27   ar
    50    23    48    1
    51    25    49    1
    52    26    27   ar
    53    26    50    1
    54    27    51    1
    55    28    52    1
    56    28    53    1
    57    28    54    1
    58    29    55    1
    59    29    56    1
    60    29    57    1
    61    30    58    1
    62    30    59    1
    63    30    60    1
