@<TRIPOS>MOLECULE
131955138
 60 66 0 0 0
SMALL
GASTEIGER

@<TRIPOS>ATOM
      1 I          -8.2677   -0.8277    2.1251 I       1  UNL1       -0.0438
      2 O          -0.2276    1.9508    1.0306 O.3     1  UNL1       -0.4818
      3 O           0.5891    4.7507    1.0326 O.3     1  UNL1       -0.5033
      4 O          -3.6270    1.6123    0.0873 O.2     1  UNL1       -0.2702
      5 N           3.5599   -1.5342    0.2430 N.3     1  UNL1       -0.2982
      6 N          -2.3119   -0.0836   -0.7903 N.am    1  UNL1       -0.3015
      7 C           1.1649    0.1071    0.3060 C.3     1  UNL1        0.0473
      8 C           1.4992   -0.8238   -0.8652 C.3     1  UNL1        0.0063
      9 C           3.0578   -0.8596   -0.9790 C.3     1  UNL1        0.0216
     10 C          -0.2918    0.5940    0.4477 C.3     1  UNL1        0.1324
     11 C           1.7263   -0.5124    1.6035 C.3     1  UNL1       -0.0263
     12 C           1.7870    1.4433    0.0849 C.ar    1  UNL1        0.0115
     13 C           3.2251   -0.8448    1.4936 C.3     1  UNL1        0.0001
     14 C           3.6759    0.5543   -1.2615 C.3     1  UNL1       -0.0110
     15 C          -1.0905    0.6844   -0.8828 C.3     1  UNL1        0.0795
     16 C           2.9732    1.6949   -0.5769 C.ar    1  UNL1       -0.0383
     17 C           4.9791   -1.8673    0.1822 C.3     1  UNL1        0.0020
     18 C           0.7866   -0.4397   -2.1309 C.2     1  UNL1       -0.0805
     19 C           5.2883   -3.0793    0.9998 C.3     1  UNL1       -0.0282
     20 C           0.9736    2.4407    0.5799 C.ar    1  UNL1        0.1663
     21 C          -0.3756    0.2271   -2.1252 C.2     1  UNL1       -0.0640
     22 C           6.4429   -3.9686    0.6291 C.3     1  UNL1       -0.0488
     23 C           5.0318   -4.4527    0.4442 C.3     1  UNL1       -0.0488
     24 C           3.3866    3.0256   -0.6450 C.ar    1  UNL1       -0.0546
     25 C           1.3679    3.7586    0.5370 C.ar    1  UNL1        0.1588
     26 C           2.5964    4.0463   -0.0743 C.ar    1  UNL1       -0.0162
     27 C          -3.4909    0.4566   -0.3058 C.2     1  UNL1        0.2447
     28 C          -4.6504   -0.4704   -0.2498 C.ar    1  UNL1        0.0377
     29 C          -5.6663   -0.2637    0.6834 C.ar    1  UNL1       -0.0365
     30 C          -4.7222   -1.5489   -1.1316 C.ar    1  UNL1       -0.0496
     31 C          -6.7541   -1.1354    0.7350 C.ar    1  UNL1        0.0141
     32 C          -5.8098   -2.4207   -1.0799 C.ar    1  UNL1       -0.0601
     33 C          -6.8259   -2.2139   -0.1468 C.ar    1  UNL1       -0.0486
     34 H           1.1493   -1.8421   -0.6361 H       1  UNL1        0.0368
     35 H           3.3128   -1.5053   -1.8309 H       1  UNL1        0.0472
     36 H          -0.8321   -0.0254    1.1751 H       1  UNL1        0.0764
     37 H           1.5735    0.1507    2.4648 H       1  UNL1        0.0287
     38 H           1.1745   -1.4368    1.8215 H       1  UNL1        0.0287
     39 H           3.8135    0.0748    1.6032 H       1  UNL1        0.0427
     40 H           3.4760   -1.4716    2.3569 H       1  UNL1        0.0427
     41 H           3.6087    0.7349   -2.3427 H       1  UNL1        0.0329
     42 H           4.7416    0.5723   -1.0086 H       1  UNL1        0.0329
     43 H          -1.3780    1.7305   -1.0523 H       1  UNL1        0.0579
     44 H           5.2708   -2.0717   -0.8566 H       1  UNL1        0.0429
     45 H           5.6075   -1.0303    0.5116 H       1  UNL1        0.0429
     46 H           1.2080   -0.7600   -3.0793 H       1  UNL1        0.0573
     47 H           5.1373   -2.9245    2.0617 H       1  UNL1        0.0313
     48 H          -0.8471    0.4500   -3.0797 H       1  UNL1        0.0589
     49 H           7.0229   -4.4039    1.4336 H       1  UNL1        0.0268
     50 H           7.0156   -3.7347   -0.2598 H       1  UNL1        0.0268
     51 H           4.6599   -4.5429   -0.5690 H       1  UNL1        0.0268
     52 H           4.6643   -5.2100    1.1257 H       1  UNL1        0.0268
     53 H           4.3100    3.2886   -1.1540 H       1  UNL1        0.0622
     54 H          -2.2512   -1.0752   -0.9986 H       1  UNL1        0.1497
     55 H           2.9441    5.0747   -0.1444 H       1  UNL1        0.0655
     56 H           1.0406    5.6015    0.8972 H       1  UNL1        0.2923
     57 H          -5.6065    0.5749    1.3737 H       1  UNL1        0.0635
     58 H          -3.9702   -1.7280   -1.8942 H       1  UNL1        0.0625
     59 H          -5.8697   -3.2563   -1.7711 H       1  UNL1        0.0618
     60 H          -7.6653   -2.9043   -0.1250 H       1  UNL1        0.0628
@<TRIPOS>BOND
     1     1    31    1
     2     2    10    1
     3     2    20    1
     4     3    25    1
     5     3    56    1
     6     4    27    2
     7     5     9    1
     8     5    13    1
     9     5    17    1
    10     6    15    1
    11     6    27   am
    12     6    54    1
    13     7     8    1
    14     7    10    1
    15     7    11    1
    16     7    12    1
    17     8     9    1
    18     8    18    1
    19     8    34    1
    20     9    14    1
    21     9    35    1
    22    10    15    1
    23    10    36    1
    24    11    13    1
    25    11    37    1
    26    11    38    1
    27    12    16   ar
    28    12    20   ar
    29    13    39    1
    30    13    40    1
    31    14    16    1
    32    14    41    1
    33    14    42    1
    34    15    21    1
    35    15    43    1
    36    16    24   ar
    37    17    19    1
    38    17    44    1
    39    17    45    1
    40    18    21    2
    41    18    46    1
    42    19    22    1
    43    19    23    1
    44    19    47    1
    45    20    25   ar
    46    21    48    1
    47    22    23    1
    48    22    49    1
    49    22    50    1
    50    23    51    1
    51    23    52    1
    52    24    26   ar
    53    24    53    1
    54    25    26   ar
    55    26    55    1
    56    27    28    1
    57    28    29   ar
    58    28    30   ar
    59    29    31   ar
    60    29    57    1
    61    30    32   ar
    62    30    58    1
    63    31    33   ar
    64    32    33   ar
    65    32    59    1
    66    33    60    1
@<TRIPOS>MOLECULE
132427686
 60 66 0 0 0
SMALL
GASTEIGER

@<TRIPOS>ATOM
      1 I          -8.8408   -1.1305   -1.2961 I       1  UNL1       -0.0438
      2 O           0.1437    1.8394    1.4667 O.3     1  UNL1       -0.4818
      3 O           1.1123    4.5898    1.4045 O.3     1  UNL1       -0.5033
      4 O          -3.8693    1.4998   -0.9530 O.2     1  UNL1       -0.2702
      5 N           3.4432   -1.7860   -0.2882 N.3     1  UNL1       -0.2982
      6 N          -2.4111    0.0163    0.0710 N.am    1  UNL1       -0.3015
      7 C           1.2265   -0.0306    0.3742 C.3     1  UNL1        0.0473
      8 C           1.2374   -0.9121   -0.8799 C.3     1  UNL1        0.0063
      9 C           2.7279   -1.0211   -1.3386 C.3     1  UNL1        0.0216
     10 C          -0.1306    0.5216    0.8563 C.3     1  UNL1        0.1324
     11 C           2.0197   -0.7478    1.4874 C.3     1  UNL1       -0.0263
     12 C           1.8663    1.2822    0.0766 C.ar    1  UNL1        0.0115
     13 C           3.4343   -1.1497    1.0333 C.3     1  UNL1        0.0001
     14 C           3.3550    0.3727   -1.6920 C.3     1  UNL1       -0.0110
     15 C          -1.1947    0.7249   -0.2584 C.3     1  UNL1        0.0795
     16 C           2.8916    1.5087   -0.8211 C.ar    1  UNL1       -0.0383
     17 C           4.7911   -2.1873   -0.6768 C.3     1  UNL1        0.0020
     18 C           0.2896   -0.4238   -1.9384 C.2     1  UNL1       -0.0805
     19 C           5.3817   -3.1378    0.3134 C.3     1  UNL1       -0.0282
     20 C           1.2446    2.2913    0.7812 C.ar    1  UNL1        0.1663
     21 C          -0.7995    0.3002   -1.6467 C.2     1  UNL1       -0.0640
     22 C           6.4874   -2.6885    1.2282 C.3     1  UNL1       -0.0488
     23 C           6.7779   -3.6618    0.1200 C.3     1  UNL1       -0.0488
     24 C           3.3614    2.8183   -0.9237 C.ar    1  UNL1       -0.0546
     25 C           1.7006    3.5877    0.7071 C.ar    1  UNL1        0.1588
     26 C           2.7804    3.8453   -0.1493 C.ar    1  UNL1       -0.0162
     27 C          -3.6607    0.4736   -0.3113 C.2     1  UNL1        0.2447
     28 C          -4.8131   -0.3546    0.1280 C.ar    1  UNL1        0.0377
     29 C          -5.9965   -0.3537   -0.6104 C.ar    1  UNL1       -0.0365
     30 C          -4.7108   -1.1335    1.2808 C.ar    1  UNL1       -0.0496
     31 C          -7.0777   -1.1316   -0.1963 C.ar    1  UNL1        0.0141
     32 C          -5.7922   -1.9112    1.6951 C.ar    1  UNL1       -0.0601
     33 C          -6.9755   -1.9105    0.9565 C.ar    1  UNL1       -0.0486
     34 H           0.8841   -1.9222   -0.6217 H       1  UNL1        0.0368
     35 H           2.7535   -1.6316   -2.2519 H       1  UNL1        0.0472
     36 H          -0.5342   -0.1056    1.6614 H       1  UNL1        0.0764
     37 H           2.1009   -0.1254    2.3880 H       1  UNL1        0.0287
     38 H           1.4726   -1.6531    1.7838 H       1  UNL1        0.0287
     39 H           4.0918   -0.2714    1.0481 H       1  UNL1        0.0427
     40 H           3.8146   -1.8316    1.8022 H       1  UNL1        0.0427
     41 H           3.0538    0.6153   -2.7202 H       1  UNL1        0.0329
     42 H           4.4482    0.3347   -1.6957 H       1  UNL1        0.0329
     43 H          -1.4468    1.7921   -0.3150 H       1  UNL1        0.0579
     44 H           4.7465   -2.7072   -1.6417 H       1  UNL1        0.0429
     45 H           5.4528   -1.3239   -0.8091 H       1  UNL1        0.0429
     46 H           0.4731   -0.7113   -2.9696 H       1  UNL1        0.0573
     47 H           4.6653   -3.8666    0.6793 H       1  UNL1        0.0313
     48 H          -1.4494    0.6008   -2.4655 H       1  UNL1        0.0589
     49 H           6.4826   -3.0656    2.2436 H       1  UNL1        0.0268
     50 H           6.8729   -1.6816    1.1272 H       1  UNL1        0.0268
     51 H           7.3518   -3.3041   -0.7260 H       1  UNL1        0.0268
     52 H           6.9738   -4.6914    0.3930 H       1  UNL1        0.0268
     53 H           4.1650    3.0613   -1.6137 H       1  UNL1        0.0622
     54 H          -2.3125   -0.9005    0.4954 H       1  UNL1        0.1497
     55 H           3.1670    4.8569   -0.2519 H       1  UNL1        0.0655
     56 H           1.5749    5.4226    1.2079 H       1  UNL1        0.2923
     57 H          -6.0724    0.2508   -1.5116 H       1  UNL1        0.0635
     58 H          -3.8186   -1.1393    1.9001 H       1  UNL1        0.0625
     59 H          -5.7154   -2.5123    2.5965 H       1  UNL1        0.0618
     60 H          -7.8064   -2.5227    1.2980 H       1  UNL1        0.0628
@<TRIPOS>BOND
     1     1    31    1
     2     2    10    1
     3     2    20    1
     4     3    25    1
     5     3    56    1
     6     4    27    2
     7     5     9    1
     8     5    13    1
     9     5    17    1
    10     6    15    1
    11     6    27   am
    12     6    54    1
    13     7     8    1
    14     7    10    1
    15     7    11    1
    16     7    12    1
    17     8     9    1
    18     8    18    1
    19     8    34    1
    20     9    14    1
    21     9    35    1
    22    10    15    1
    23    10    36    1
    24    11    13    1
    25    11    37    1
    26    11    38    1
    27    12    16   ar
    28    12    20   ar
    29    13    39    1
    30    13    40    1
    31    14    16    1
    32    14    41    1
    33    14    42    1
    34    15    21    1
    35    15    43    1
    36    16    24   ar
    37    17    19    1
    38    17    44    1
    39    17    45    1
    40    18    21    2
    41    18    46    1
    42    19    22    1
    43    19    23    1
    44    19    47    1
    45    20    25   ar
    46    21    48    1
    47    22    23    1
    48    22    49    1
    49    22    50    1
    50    23    51    1
    51    23    52    1
    52    24    26   ar
    53    24    53    1
    54    25    26   ar
    55    26    55    1
    56    27    28    1
    57    28    29   ar
    58    28    30   ar
    59    29    31   ar
    60    29    57    1
    61    30    32   ar
    62    30    58    1
    63    31    33   ar
    64    32    33   ar
    65    32    59    1
    66    33    60    1
