@<TRIPOS>MOLECULE
66553195
 57 60 0 0 0
SMALL
GASTEIGER

@<TRIPOS>ATOM
      1 S          -5.6048    1.9778   -1.1515 S.2     1  UNL1       -0.0966
      2 O           3.9947    1.8338   -0.6210 O.3     1  UNL1       -0.3733
      3 O          -5.1081   -1.1648    1.0434 O.3     1  UNL1       -0.4943
      4 N           1.7537   -1.4090   -1.5226 N.ar    1  UNL1       -0.2593
      5 N          -2.3788    0.6889   -0.0311 N.3     1  UNL1       -0.3114
      6 C           3.9072    1.0510    0.5757 C.3     1  UNL1        0.0704
      7 C           1.4313    0.5057   -0.0051 C.3     1  UNL1        0.0187
      8 C           2.4527    0.9788    1.0713 C.3     1  UNL1       -0.0125
      9 C           4.8008    1.7382    1.6213 C.3     1  UNL1       -0.0237
     10 C           4.6231   -0.2974    0.4268 C.3     1  UNL1       -0.0237
     11 C           1.6850    1.3950   -1.2530 C.3     1  UNL1       -0.0182
     12 C           6.2268    1.3540    1.2306 C.3     1  UNL1       -0.0504
     13 C           6.1087    0.0588    0.4313 C.3     1  UNL1       -0.0504
     14 C          -0.0007    0.8133    0.4991 C.3     1  UNL1       -0.0292
     15 C           3.1485    1.4020   -1.6812 C.3     1  UNL1        0.0492
     16 C           1.4898   -1.0143   -0.2569 C.ar    1  UNL1        0.0476
     17 C          -1.0420    0.3734   -0.5203 C.3     1  UNL1       -0.0029
     18 C           1.2756   -1.8857    0.7988 C.ar    1  UNL1       -0.0398
     19 C           1.3365   -3.2502    0.5388 C.ar    1  UNL1       -0.0586
     20 C           1.8049   -2.7429   -1.7372 C.ar    1  UNL1        0.0279
     21 C          -3.3917    0.3071   -1.0050 C.3     1  UNL1        0.0310
     22 C           1.6058   -3.6952   -0.7507 C.ar    1  UNL1       -0.0436
     23 C          -4.7825    0.6161   -0.5179 C.ar    1  UNL1        0.0451
     24 C          -5.5429   -0.0616    0.4097 C.ar    1  UNL1        0.1315
     25 C          -6.8174    0.5453    0.6026 C.ar    1  UNL1       -0.0126
     26 C          -6.9827    1.6635   -0.1848 C.ar    1  UNL1       -0.0205
     27 C          -5.9934   -1.7815    1.9889 C.3     1  UNL1        0.0788
     28 H           2.1632    1.9948    1.3784 H       1  UNL1        0.0302
     29 H           2.3926    0.3655    1.9785 H       1  UNL1        0.0302
     30 H           4.6819    2.8269    1.6303 H       1  UNL1        0.0293
     31 H           4.5872    1.3593    2.6284 H       1  UNL1        0.0293
     32 H           4.4037   -0.9480    1.2823 H       1  UNL1        0.0293
     33 H           4.3765   -0.8422   -0.4868 H       1  UNL1        0.0293
     34 H           1.3989    2.4303   -1.0227 H       1  UNL1        0.0296
     35 H           1.0887    1.0791   -2.1153 H       1  UNL1        0.0296
     36 H           6.8588    1.2296    2.1159 H       1  UNL1        0.0266
     37 H           6.6811    2.1355    0.6108 H       1  UNL1        0.0266
     38 H           6.4652    0.2207   -0.5927 H       1  UNL1        0.0266
     39 H           6.7108   -0.7459    0.8650 H       1  UNL1        0.0266
     40 H          -0.1052    1.8915    0.6852 H       1  UNL1        0.0286
     41 H          -0.1966    0.3299    1.4652 H       1  UNL1        0.0286
     42 H           3.4840    0.4320   -2.0571 H       1  UNL1        0.0560
     43 H           3.2777    2.1126   -2.5048 H       1  UNL1        0.0560
     44 H          -0.8961    0.8880   -1.4744 H       1  UNL1        0.0424
     45 H          -0.9919   -0.7040   -0.7049 H       1  UNL1        0.0424
     46 H           1.0701   -1.5463    1.8075 H       1  UNL1        0.0636
     47 H          -2.4435    1.6903    0.1530 H       1  UNL1        0.1223
     48 H           1.1757   -3.9656    1.3396 H       1  UNL1        0.0619
     49 H           2.0182   -3.0378   -2.7592 H       1  UNL1        0.0829
     50 H          -3.3352   -0.7722   -1.1983 H       1  UNL1        0.0480
     51 H          -3.2076    0.8081   -1.9642 H       1  UNL1        0.0480
     52 H           1.6584   -4.7541   -0.9763 H       1  UNL1        0.0633
     53 H          -7.5926    0.2028    1.2758 H       1  UNL1        0.0659
     54 H          -7.8465    2.3109   -0.2385 H       1  UNL1        0.0694
     55 H          -5.4801   -2.6547    2.4023 H       1  UNL1        0.0660
     56 H          -6.9084   -2.1271    1.4972 H       1  UNL1        0.0660
     57 H          -6.2186   -1.0982    2.8141 H       1  UNL1        0.0660
@<TRIPOS>BOND
     1     1    23   ar
     2     1    26   ar
     3     2     6    1
     4     2    15    1
     5     3    24    1
     6     3    27    1
     7     4    16   ar
     8     4    20   ar
     9     5    17    1
    10     5    21    1
    11     5    47    1
    12     6     8    1
    13     6     9    1
    14     6    10    1
    15     7     8    1
    16     7    11    1
    17     7    14    1
    18     7    16    1
    19     8    28    1
    20     8    29    1
    21     9    12    1
    22     9    30    1
    23     9    31    1
    24    10    13    1
    25    10    32    1
    26    10    33    1
    27    11    15    1
    28    11    34    1
    29    11    35    1
    30    12    13    1
    31    12    36    1
    32    12    37    1
    33    13    38    1
    34    13    39    1
    35    14    17    1
    36    14    40    1
    37    14    41    1
    38    15    42    1
    39    15    43    1
    40    16    18   ar
    41    17    44    1
    42    17    45    1
    43    18    19   ar
    44    18    46    1
    45    19    22   ar
    46    19    48    1
    47    20    22   ar
    48    20    49    1
    49    21    23    1
    50    21    50    1
    51    21    51    1
    52    22    52    1
    53    23    24   ar
    54    24    25   ar
    55    25    26   ar
    56    25    53    1
    57    26    54    1
    58    27    55    1
    59    27    56    1
    60    27    57    1
@<TRIPOS>MOLECULE
154925832
 58 61 0 0 0
SMALL
GASTEIGER

@<TRIPOS>ATOM
      1 S           5.8505    1.5643    0.8398 S.2     1  UNL1       -0.0966
      2 O          -3.4780   -1.7041   -1.1056 O.3     1  UNL1       -0.3732
      3 O          -6.8095   -1.7965    1.6320 O.3     1  UNL1       -0.3917
      4 O           5.4412   -1.9918   -0.6186 O.3     1  UNL1       -0.4943
      5 N          -1.5431    1.8391   -1.3339 N.ar    1  UNL1       -0.2593
      6 N           2.6581   -0.0827    0.2422 N.3     1  UNL1       -0.3114
      7 C          -3.5817   -1.0970    0.1878 C.3     1  UNL1        0.0728
      8 C          -1.1415   -0.2325   -0.0614 C.3     1  UNL1        0.0187
      9 C          -2.1927   -0.9539    0.8332 C.3     1  UNL1       -0.0125
     10 C          -4.4808   -2.0092    1.0377 C.3     1  UNL1        0.0024
     11 C          -4.4284    0.1820    0.1498 C.3     1  UNL1       -0.0213
     12 C          -5.9002   -1.7207    0.5465 C.3     1  UNL1        0.0580
     13 C          -5.8625   -0.3127   -0.0491 C.3     1  UNL1       -0.0242
     14 C          -1.1858   -0.9535   -1.4364 C.3     1  UNL1       -0.0182
     15 C           0.2670   -0.4668    0.5390 C.3     1  UNL1       -0.0292
     16 C          -2.5969   -1.0429   -2.0073 C.3     1  UNL1        0.0492
     17 C          -1.3476    1.2945   -0.1120 C.ar    1  UNL1        0.0476
     18 C           1.3434    0.1457   -0.3457 C.3     1  UNL1       -0.0029
     19 C          -1.3240    2.0225    1.0667 C.ar    1  UNL1       -0.0398
     20 C          -1.5132    3.3977    0.9862 C.ar    1  UNL1       -0.0586
     21 C          -1.7234    3.1783   -1.3727 C.ar    1  UNL1        0.0279
     22 C           3.7039    0.5161   -0.5750 C.3     1  UNL1        0.0310
     23 C          -1.7172    3.9944   -0.2530 C.ar    1  UNL1       -0.0436
     24 C           5.0725    0.2853    0.0085 C.ar    1  UNL1        0.0451
     25 C           5.8436   -0.8559   -0.0221 C.ar    1  UNL1        0.1315
     26 C           7.0892   -0.6779    0.6458 C.ar    1  UNL1       -0.0126
     27 C           7.2231    0.5925    1.1615 C.ar    1  UNL1       -0.0205
     28 C           6.3339   -3.1142   -0.5838 C.3     1  UNL1        0.0788
     29 H          -1.8200   -1.9703    1.0291 H       1  UNL1        0.0302
     30 H          -2.2799   -0.4746    1.8157 H       1  UNL1        0.0302
     31 H          -4.3897   -1.7786    2.1068 H       1  UNL1        0.0318
     32 H          -4.2415   -3.0703    0.9041 H       1  UNL1        0.0318
     33 H          -4.1630    0.8762   -0.6503 H       1  UNL1        0.0294
     34 H          -4.3603    0.7184    1.1042 H       1  UNL1        0.0294
     35 H          -6.2135   -2.4433   -0.2153 H       1  UNL1        0.0594
     36 H          -6.5881    0.3690    0.4058 H       1  UNL1        0.0291
     37 H          -6.0801   -0.3655   -1.1227 H       1  UNL1        0.0291
     38 H          -0.8053   -1.9774   -1.3201 H       1  UNL1        0.0296
     39 H          -0.5603   -0.4569   -2.1857 H       1  UNL1        0.0296
     40 H           0.3407   -0.0666    1.5584 H       1  UNL1        0.0286
     41 H           0.4553   -1.5456    0.6348 H       1  UNL1        0.0286
     42 H          -3.0052   -0.0667   -2.2816 H       1  UNL1        0.0560
     43 H          -2.5744   -1.6366   -2.9276 H       1  UNL1        0.0560
     44 H           1.1939    1.2231   -0.4688 H       1  UNL1        0.0424
     45 H           1.3406   -0.3141   -1.3379 H       1  UNL1        0.0424
     46 H          -6.7544   -2.6963    1.9966 H       1  UNL1        0.2098
     47 H          -1.1716    1.5641    2.0370 H       1  UNL1        0.0636
     48 H           2.6837    0.3222    1.1783 H       1  UNL1        0.1223
     49 H          -1.5031    4.0032    1.8875 H       1  UNL1        0.0619
     50 H          -1.8789    3.5943   -2.3626 H       1  UNL1        0.0829
     51 H           3.6886    0.0771   -1.5812 H       1  UNL1        0.0480
     52 H           3.5229    1.5917   -0.6989 H       1  UNL1        0.0480
     53 H          -1.8673    5.0644   -0.3396 H       1  UNL1        0.0633
     54 H           7.8656   -1.4234    0.7587 H       1  UNL1        0.0659
     55 H           8.0612    0.9964    1.7117 H       1  UNL1        0.0694
     56 H           5.8482   -3.9401   -1.1118 H       1  UNL1        0.0660
     57 H           7.2698   -2.8833   -1.1029 H       1  UNL1        0.0660
     58 H           6.5186   -3.4326    0.4472 H       1  UNL1        0.0660
@<TRIPOS>BOND
     1     1    24   ar
     2     1    27   ar
     3     2     7    1
     4     2    16    1
     5     3    12    1
     6     3    46    1
     7     4    25    1
     8     4    28    1
     9     5    17   ar
    10     5    21   ar
    11     6    18    1
    12     6    22    1
    13     6    48    1
    14     7     9    1
    15     7    10    1
    16     7    11    1
    17     8     9    1
    18     8    14    1
    19     8    15    1
    20     8    17    1
    21     9    29    1
    22     9    30    1
    23    10    12    1
    24    10    31    1
    25    10    32    1
    26    11    13    1
    27    11    33    1
    28    11    34    1
    29    12    13    1
    30    12    35    1
    31    13    36    1
    32    13    37    1
    33    14    16    1
    34    14    38    1
    35    14    39    1
    36    15    18    1
    37    15    40    1
    38    15    41    1
    39    16    42    1
    40    16    43    1
    41    17    19   ar
    42    18    44    1
    43    18    45    1
    44    19    20   ar
    45    19    47    1
    46    20    23   ar
    47    20    49    1
    48    21    23   ar
    49    21    50    1
    50    22    24    1
    51    22    51    1
    52    22    52    1
    53    23    53    1
    54    24    25   ar
    55    25    26   ar
    56    26    27   ar
    57    26    54    1
    58    27    55    1
    59    28    56    1
    60    28    57    1
    61    28    58    1
@<TRIPOS>MOLECULE
66555030
 57 60 0 0 0
SMALL
GASTEIGER

@<TRIPOS>ATOM
      1 S          -5.2601   -1.4048    1.3318 S.2     1  UNL1       -0.0966
      2 O           3.7389    2.0185   -0.6934 O.3     1  UNL1       -0.3733
      3 O          -5.6124    1.5936   -1.0819 O.3     1  UNL1       -0.4943
      4 N           1.8538   -1.4765   -1.4560 N.ar    1  UNL1       -0.2593
      5 N          -2.3685    0.0761    0.4056 N.3     1  UNL1       -0.3114
      6 C           3.8512    1.2252    0.4942 C.3     1  UNL1        0.0704
      7 C           1.4231    0.3747    0.1125 C.3     1  UNL1        0.0187
      8 C           2.4643    0.9676    1.1076 C.3     1  UNL1       -0.0125
      9 C           4.7367    2.0144    1.4725 C.3     1  UNL1       -0.0237
     10 C           4.7153   -0.0215    0.2655 C.3     1  UNL1       -0.0237
     11 C           1.4573    1.2951   -1.1383 C.3     1  UNL1       -0.0182
     12 C           6.1616    1.8150    0.9589 C.3     1  UNL1       -0.0504
     13 C           6.1397    0.5192    0.1522 C.3     1  UNL1       -0.0504
     14 C           0.0115    0.4968    0.7385 C.3     1  UNL1       -0.0292
     15 C           2.8671    1.4887   -1.6863 C.3     1  UNL1        0.0492
     16 C           1.6501   -1.1244   -0.1669 C.ar    1  UNL1        0.0476
     17 C          -1.0487   -0.0659   -0.1977 C.3     1  UNL1       -0.0029
     18 C           1.6365   -2.0211    0.8894 C.ar    1  UNL1       -0.0398
     19 C           1.8457   -3.3658    0.6041 C.ar    1  UNL1       -0.0586
     20 C           2.0533   -2.7923   -1.6947 C.ar    1  UNL1        0.0279
     21 C          -3.4040   -0.4257   -0.4866 C.3     1  UNL1        0.0310
     22 C           2.0590   -3.7669   -0.7100 C.ar    1  UNL1       -0.0436
     23 C          -4.7764   -0.2970    0.1190 C.ar    1  UNL1        0.0451
     24 C          -5.7620    0.6232   -0.1634 C.ar    1  UNL1        0.1315
     25 C          -6.9294    0.4161    0.6268 C.ar    1  UNL1       -0.0126
     26 C          -6.7918   -0.6544    1.4826 C.ar    1  UNL1       -0.0205
     27 C          -6.7118    2.4921   -1.2859 C.3     1  UNL1        0.0788
     28 H           2.0767    1.9375    1.4534 H       1  UNL1        0.0302
     29 H           2.5582    0.3472    2.0070 H       1  UNL1        0.0302
     30 H           4.4836    3.0794    1.5082 H       1  UNL1        0.0293
     31 H           4.6579    1.6066    2.4879 H       1  UNL1        0.0293
     32 H           4.6520   -0.6987    1.1260 H       1  UNL1        0.0293
     33 H           4.4628   -0.5885   -0.6329 H       1  UNL1        0.0293
     34 H           1.0642    2.2849   -0.8690 H       1  UNL1        0.0296
     35 H           0.8347    0.9107   -1.9529 H       1  UNL1        0.0296
     36 H           6.8765    1.7670    1.7866 H       1  UNL1        0.0266
     37 H           6.4605    2.6507    0.3157 H       1  UNL1        0.0266
     38 H           6.3855    0.7299   -0.8952 H       1  UNL1        0.0266
     39 H           6.8723   -0.2052    0.5218 H       1  UNL1        0.0266
     40 H          -0.2112    1.5523    0.9493 H       1  UNL1        0.0286
     41 H          -0.0401   -0.0122    1.7100 H       1  UNL1        0.0286
     42 H           3.2886    0.5706   -2.1037 H       1  UNL1        0.0560
     43 H           2.8363    2.2140   -2.5066 H       1  UNL1        0.0560
     44 H          -1.0496    0.4675   -1.1526 H       1  UNL1        0.0424
     45 H          -0.8796   -1.1275   -0.4023 H       1  UNL1        0.0424
     46 H           1.4759   -1.7153    1.9168 H       1  UNL1        0.0636
     47 H          -2.5424    1.0600    0.6115 H       1  UNL1        0.1223
     48 H           1.8439   -4.0997    1.4043 H       1  UNL1        0.0619
     49 H           2.2150   -3.0529   -2.7354 H       1  UNL1        0.0829
     50 H          -3.2210   -1.4810   -0.7282 H       1  UNL1        0.0480
     51 H          -3.3817    0.1225   -1.4372 H       1  UNL1        0.0480
     52 H           2.2246   -4.8096   -0.9556 H       1  UNL1        0.0633
     53 H          -7.8371    1.0046    0.5916 H       1  UNL1        0.0659
     54 H          -7.5174   -1.0318    2.1893 H       1  UNL1        0.0694
     55 H          -6.4163    3.2068   -2.0597 H       1  UNL1        0.0660
     56 H          -6.9307    3.0532   -0.3717 H       1  UNL1        0.0660
     57 H          -7.5948    1.9520   -1.6425 H       1  UNL1        0.0660
@<TRIPOS>BOND
     1     1    23   ar
     2     1    26   ar
     3     2     6    1
     4     2    15    1
     5     3    24    1
     6     3    27    1
     7     4    16   ar
     8     4    20   ar
     9     5    17    1
    10     5    21    1
    11     5    47    1
    12     6     8    1
    13     6     9    1
    14     6    10    1
    15     7     8    1
    16     7    11    1
    17     7    14    1
    18     7    16    1
    19     8    28    1
    20     8    29    1
    21     9    12    1
    22     9    30    1
    23     9    31    1
    24    10    13    1
    25    10    32    1
    26    10    33    1
    27    11    15    1
    28    11    34    1
    29    11    35    1
    30    12    13    1
    31    12    36    1
    32    12    37    1
    33    13    38    1
    34    13    39    1
    35    14    17    1
    36    14    40    1
    37    14    41    1
    38    15    42    1
    39    15    43    1
    40    16    18   ar
    41    17    44    1
    42    17    45    1
    43    18    19   ar
    44    18    46    1
    45    19    22   ar
    46    19    48    1
    47    20    22   ar
    48    20    49    1
    49    21    23    1
    50    21    50    1
    51    21    51    1
    52    22    52    1
    53    23    24   ar
    54    24    25   ar
    55    25    26   ar
    56    25    53    1
    57    26    54    1
    58    27    55    1
    59    27    56    1
    60    27    57    1
