@<TRIPOS>MOLECULE
5284603
 44 48 0 0 0
SMALL
GASTEIGER

@<TRIPOS>ATOM
      1 O          -1.5733    1.1048   -1.2494 O.3     1  UNL1       -0.4764
      2 O           2.8706    1.4889   -0.2605 O.3     1  UNL1       -0.3860
      3 O          -1.4839    3.2947    0.3380 O.2     1  UNL1       -0.2934
      4 O          -3.9470   -0.4470   -0.5476 O.3     1  UNL1       -0.4914
      5 N           2.9881   -1.2626   -0.4685 N.3     1  UNL1       -0.2993
      6 C           0.6891    0.5030   -0.6438 C.3     1  UNL1        0.0746
      7 C           1.8193    0.7378    0.3692 C.3     1  UNL1        0.0957
      8 C           2.3704   -0.6783    0.7505 C.3     1  UNL1        0.0438
      9 C          -0.2549    1.6729   -0.9650 C.3     1  UNL1        0.1701
     10 C           1.2628   -0.1639   -1.9164 C.3     1  UNL1       -0.0238
     11 C          -0.3385   -0.3970   -0.0492 C.ar    1  UNL1        0.0141
     12 C           1.3513    1.5806    1.5690 C.3     1  UNL1       -0.0147
     13 C           1.2771   -1.5832    1.4218 C.3     1  UNL1       -0.0089
     14 C           2.0651   -1.4385   -1.5944 C.3     1  UNL1        0.0000
     15 C          -0.1091   -1.4152    0.8564 C.ar    1  UNL1       -0.0382
     16 C           0.7455    2.9029    1.1010 C.3     1  UNL1        0.0123
     17 C          -0.4374    2.6614    0.1907 C.2     1  UNL1        0.1745
     18 C          -1.5976   -0.0407   -0.4882 C.ar    1  UNL1        0.1671
     19 C           3.7561   -2.4759   -0.2113 C.3     1  UNL1       -0.0124
     20 C          -1.2189   -2.1586    1.2581 C.ar    1  UNL1       -0.0546
     21 C          -2.7035   -0.7697   -0.1163 C.ar    1  UNL1        0.1618
     22 C          -2.5027   -1.8471    0.7590 C.ar    1  UNL1       -0.0160
     23 C          -5.0287   -1.2690   -0.1029 C.3     1  UNL1        0.0790
     24 H           3.1853   -0.5354    1.4731 H       1  UNL1        0.0494
     25 H           0.0806    2.2435   -1.8384 H       1  UNL1        0.0824
     26 H           1.9153    0.5465   -2.4404 H       1  UNL1        0.0288
     27 H           0.4665   -0.4231   -2.6265 H       1  UNL1        0.0288
     28 H           2.2074    1.8052    2.2170 H       1  UNL1        0.0298
     29 H           0.6175    1.0451    2.1808 H       1  UNL1        0.0298
     30 H           1.2288   -1.3083    2.4839 H       1  UNL1        0.0329
     31 H           1.5599   -2.6400    1.3925 H       1  UNL1        0.0329
     32 H           1.3755   -2.2707   -1.4056 H       1  UNL1        0.0427
     33 H           2.6321   -1.7106   -2.4936 H       1  UNL1        0.0427
     34 H           1.4703    3.5322    0.5761 H       1  UNL1        0.0344
     35 H           0.3986    3.4647    1.9757 H       1  UNL1        0.0344
     36 H           2.4730    2.2073   -0.7799 H       1  UNL1        0.2103
     37 H           4.3562   -2.7360   -1.0906 H       1  UNL1        0.0391
     38 H           3.1243   -3.3374    0.0270 H       1  UNL1        0.0391
     39 H           4.4628   -2.3246    0.6119 H       1  UNL1        0.0391
     40 H          -1.1062   -2.9713    1.9708 H       1  UNL1        0.0622
     41 H          -3.3124   -2.4747    1.1193 H       1  UNL1        0.0655
     42 H          -4.9148   -2.3020   -0.4487 H       1  UNL1        0.0660
     43 H          -5.9433   -0.8749   -0.5576 H       1  UNL1        0.0660
     44 H          -5.1555   -1.2086    0.9831 H       1  UNL1        0.0660
@<TRIPOS>BOND
     1     1     9    1
     2     1    18    1
     3     2     7    1
     4     2    36    1
     5     3    17    2
     6     4    21    1
     7     4    23    1
     8     5     8    1
     9     5    14    1
    10     5    19    1
    11     6     7    1
    12     6     9    1
    13     6    10    1
    14     6    11    1
    15     7     8    1
    16     7    12    1
    17     8    13    1
    18     8    24    1
    19     9    17    1
    20     9    25    1
    21    10    14    1
    22    10    26    1
    23    10    27    1
    24    11    15   ar
    25    11    18   ar
    26    12    16    1
    27    12    28    1
    28    12    29    1
    29    13    15    1
    30    13    30    1
    31    13    31    1
    32    14    32    1
    33    14    33    1
    34    15    20   ar
    35    16    17    1
    36    16    34    1
    37    16    35    1
    38    18    21   ar
    39    19    37    1
    40    19    38    1
    41    19    39    1
    42    20    22   ar
    43    20    40    1
    44    21    22   ar
    45    22    41    1
    46    23    42    1
    47    23    43    1
    48    23    44    1
@<TRIPOS>MOLECULE
45040173
 44 48 0 0 0
SMALL
GASTEIGER

@<TRIPOS>ATOM
      1 O          -1.5733    1.1045   -1.2497 O.3     1  UNL1       -0.4764
      2 O           2.8702    1.4895   -0.2596 O.3     1  UNL1       -0.3860
      3 O          -1.4847    3.2946    0.3374 O.2     1  UNL1       -0.2934
      4 O          -3.9469   -0.4476   -0.5481 O.3     1  UNL1       -0.4914
      5 N           2.9886   -1.2618   -0.4685 N.3     1  UNL1       -0.2993
      6 C           0.6892    0.5031   -0.6438 C.3     1  UNL1        0.0746
      7 C           1.8192    0.7378    0.3696 C.3     1  UNL1        0.0957
      8 C           2.3705   -0.6782    0.7506 C.3     1  UNL1        0.0438
      9 C          -0.2550    1.6728   -0.9649 C.3     1  UNL1        0.1701
     10 C           1.2634   -0.1632   -1.9164 C.3     1  UNL1       -0.0238
     11 C          -0.3383   -0.3973   -0.0496 C.ar    1  UNL1        0.0141
     12 C           1.3504    1.5802    1.5695 C.3     1  UNL1       -0.0147
     13 C           1.2773   -1.5836    1.4212 C.3     1  UNL1       -0.0089
     14 C           2.0662   -1.4377   -1.5947 C.3     1  UNL1        0.0000
     15 C          -0.1090   -1.4155    0.8561 C.ar    1  UNL1       -0.0382
     16 C           0.7444    2.9025    1.1017 C.3     1  UNL1        0.0123
     17 C          -0.4382    2.6612    0.1908 C.2     1  UNL1        0.1745
     18 C          -1.5976   -0.0410   -0.4884 C.ar    1  UNL1        0.1671
     19 C           3.7569   -2.4750   -0.2114 C.3     1  UNL1       -0.0124
     20 C          -1.2188   -2.1586    1.2581 C.ar    1  UNL1       -0.0546
     21 C          -2.7035   -0.7699   -0.1163 C.ar    1  UNL1        0.1618
     22 C          -2.5026   -1.8471    0.7594 C.ar    1  UNL1       -0.0160
     23 C          -5.0285   -1.2696   -0.1030 C.3     1  UNL1        0.0790
     24 H           3.1846   -0.5376    1.4747 H       1  UNL1        0.0494
     25 H           0.0810    2.2436   -1.8379 H       1  UNL1        0.0824
     26 H           1.9168    0.5489   -2.4373 H       1  UNL1        0.0288
     27 H           0.4680   -0.4215   -2.6278 H       1  UNL1        0.0288
     28 H           0.6149    1.0443    2.1790 H       1  UNL1        0.0298
     29 H           2.2033    1.8042    2.2220 H       1  UNL1        0.0298
     30 H           1.5601   -2.6404    1.3913 H       1  UNL1        0.0329
     31 H           1.2290   -1.3094    2.4835 H       1  UNL1        0.0329
     32 H           1.3769   -2.2702   -1.4065 H       1  UNL1        0.0427
     33 H           2.6337   -1.7091   -2.4938 H       1  UNL1        0.0427
     34 H           1.4738    3.5179    0.5651 H       1  UNL1        0.0344
     35 H           0.4037    3.4725    1.9731 H       1  UNL1        0.0344
     36 H           3.6124    1.5422    0.3664 H       1  UNL1        0.2103
     37 H           3.1254   -3.3367    0.0265 H       1  UNL1        0.0391
     38 H           4.3573   -2.7347   -1.0907 H       1  UNL1        0.0391
     39 H           4.4635   -2.3237    0.6119 H       1  UNL1        0.0391
     40 H          -1.1061   -2.9712    1.9709 H       1  UNL1        0.0622
     41 H          -3.3123   -2.4746    1.1198 H       1  UNL1        0.0655
     42 H          -4.9145   -2.3026   -0.4483 H       1  UNL1        0.0660
     43 H          -5.1553   -1.2086    0.9831 H       1  UNL1        0.0660
     44 H          -5.9432   -0.8758   -0.5577 H       1  UNL1        0.0660
@<TRIPOS>BOND
     1     1     9    1
     2     1    18    1
     3     2     7    1
     4     2    36    1
     5     3    17    2
     6     4    21    1
     7     4    23    1
     8     5     8    1
     9     5    14    1
    10     5    19    1
    11     6     7    1
    12     6     9    1
    13     6    10    1
    14     6    11    1
    15     7     8    1
    16     7    12    1
    17     8    13    1
    18     8    24    1
    19     9    17    1
    20     9    25    1
    21    10    14    1
    22    10    26    1
    23    10    27    1
    24    11    15   ar
    25    11    18   ar
    26    12    16    1
    27    12    28    1
    28    12    29    1
    29    13    15    1
    30    13    30    1
    31    13    31    1
    32    14    32    1
    33    14    33    1
    34    15    20   ar
    35    16    17    1
    36    16    34    1
    37    16    35    1
    38    18    21   ar
    39    19    37    1
    40    19    38    1
    41    19    39    1
    42    20    22   ar
    43    20    40    1
    44    21    22   ar
    45    22    41    1
    46    23    42    1
    47    23    43    1
    48    23    44    1
@<TRIPOS>MOLECULE
59253422
 44 48 0 0 0
SMALL
GASTEIGER

@<TRIPOS>ATOM
      1 O          -1.5733    1.1044   -1.2497 O.3     1  UNL1       -0.4764
      2 O           2.8701    1.4896   -0.2595 O.3     1  UNL1       -0.3860
      3 O          -1.4849    3.2944    0.3373 O.2     1  UNL1       -0.2934
      4 O          -3.9469   -0.4475   -0.5479 O.3     1  UNL1       -0.4914
      5 N           2.9887   -1.2617   -0.4684 N.3     1  UNL1       -0.2993
      6 C           0.6892    0.5030   -0.6438 C.3     1  UNL1        0.0746
      7 C           1.8191    0.7379    0.3696 C.3     1  UNL1        0.0957
      8 C           2.3705   -0.6782    0.7506 C.3     1  UNL1        0.0438
      9 C          -0.2551    1.6728   -0.9649 C.3     1  UNL1        0.1701
     10 C           1.2635   -0.1632   -1.9164 C.3     1  UNL1       -0.0238
     11 C          -0.3383   -0.3973   -0.0496 C.ar    1  UNL1        0.0141
     12 C           1.3503    1.5802    1.5695 C.3     1  UNL1       -0.0147
     13 C           1.2773   -1.5836    1.4212 C.3     1  UNL1       -0.0089
     14 C           2.0664   -1.4376   -1.5948 C.3     1  UNL1        0.0000
     15 C          -0.1090   -1.4156    0.8560 C.ar    1  UNL1       -0.0382
     16 C           0.7442    2.9025    1.1017 C.3     1  UNL1        0.0123
     17 C          -0.4383    2.6611    0.1908 C.2     1  UNL1        0.1745
     18 C          -1.5975   -0.0411   -0.4885 C.ar    1  UNL1        0.1671
     19 C           3.7570   -2.4748   -0.2113 C.3     1  UNL1       -0.0124
     20 C          -1.2188   -2.1587    1.2580 C.ar    1  UNL1       -0.0546
     21 C          -2.7034   -0.7701   -0.1165 C.ar    1  UNL1        0.1618
     22 C          -2.5026   -1.8472    0.7592 C.ar    1  UNL1       -0.0160
     23 C          -5.0284   -1.2696   -0.1028 C.3     1  UNL1        0.0790
     24 H           3.1845   -0.5375    1.4748 H       1  UNL1        0.0494
     25 H           0.0809    2.2436   -1.8379 H       1  UNL1        0.0824
     26 H           1.9169    0.5491   -2.4373 H       1  UNL1        0.0288
     27 H           0.4682   -0.4214   -2.6279 H       1  UNL1        0.0288
     28 H           2.2032    1.8043    2.2221 H       1  UNL1        0.0298
     29 H           0.6148    1.0443    2.1790 H       1  UNL1        0.0298
     30 H           1.2289   -1.3094    2.4835 H       1  UNL1        0.0329
     31 H           1.5601   -2.6403    1.3912 H       1  UNL1        0.0329
     32 H           2.6339   -1.7090   -2.4938 H       1  UNL1        0.0427
     33 H           1.3770   -2.2701   -1.4065 H       1  UNL1        0.0427
     34 H           1.4737    3.5179    0.5652 H       1  UNL1        0.0344
     35 H           0.4035    3.4725    1.9732 H       1  UNL1        0.0344
     36 H           3.6124    1.5423    0.3665 H       1  UNL1        0.2103
     37 H           4.4635   -2.3235    0.6121 H       1  UNL1        0.0391
     38 H           4.3575   -2.7344   -1.0906 H       1  UNL1        0.0391
     39 H           3.1255   -3.3366    0.0265 H       1  UNL1        0.0391
     40 H          -1.1060   -2.9713    1.9709 H       1  UNL1        0.0622
     41 H          -3.3122   -2.4747    1.1197 H       1  UNL1        0.0655
     42 H          -5.9432   -0.8757   -0.5574 H       1  UNL1        0.0660
     43 H          -5.1552   -1.2088    0.9833 H       1  UNL1        0.0660
     44 H          -4.9145   -2.3026   -0.4483 H       1  UNL1        0.0660
@<TRIPOS>BOND
     1     1     9    1
     2     1    18    1
     3     2     7    1
     4     2    36    1
     5     3    17    2
     6     4    21    1
     7     4    23    1
     8     5     8    1
     9     5    14    1
    10     5    19    1
    11     6     7    1
    12     6     9    1
    13     6    10    1
    14     6    11    1
    15     7     8    1
    16     7    12    1
    17     8    13    1
    18     8    24    1
    19     9    17    1
    20     9    25    1
    21    10    14    1
    22    10    26    1
    23    10    27    1
    24    11    15   ar
    25    11    18   ar
    26    12    16    1
    27    12    28    1
    28    12    29    1
    29    13    15    1
    30    13    30    1
    31    13    31    1
    32    14    32    1
    33    14    33    1
    34    15    20   ar
    35    16    17    1
    36    16    34    1
    37    16    35    1
    38    18    21   ar
    39    19    37    1
    40    19    38    1
    41    19    39    1
    42    20    22   ar
    43    20    40    1
    44    21    22   ar
    45    22    41    1
    46    23    42    1
    47    23    43    1
    48    23    44    1
@<TRIPOS>MOLECULE
71623259
 45 49 0 0 0
SMALL
GASTEIGER

@<TRIPOS>ATOM
      1 O          -1.7365   -1.0396    1.2912 O.3     1  UNL1       -0.4764
      2 O           2.6205   -1.6872    0.1455 O.3     1  UNL1       -0.3819
      3 O           3.9904    0.4249    0.7611 O.co2   1  UNL1       -0.7752
      4 O          -1.8203   -3.2475   -0.2724 O.2     1  UNL1       -0.2934
      5 O          -4.0554    0.6161    0.6463 O.3     1  UNL1       -0.4914
      6 N           2.9146    1.1915    0.3514 N.3     1  UNL1        0.2194
      7 C           0.5295   -0.5598    0.5969 C.3     1  UNL1        0.0820
      8 C           1.6091   -0.8649   -0.4495 C.3     1  UNL1        0.1225
      9 C           2.2115    0.5232   -0.8700 C.3     1  UNL1        0.0125
     10 C           1.1717    0.0848    1.8496 C.3     1  UNL1        0.0039
     11 C          -0.4606   -1.6785    0.9637 C.3     1  UNL1        0.1704
     12 C          -0.4738    0.3794    0.0214 C.ar    1  UNL1        0.0146
     13 C           1.0531   -1.6919   -1.6256 C.3     1  UNL1       -0.0109
     14 C           1.9594    1.3562    1.5180 C.3     1  UNL1       -0.0315
     15 C           1.1362    1.4384   -1.5511 C.3     1  UNL1        0.0186
     16 C          -0.2308    1.3616   -0.9204 C.ar    1  UNL1       -0.0343
     17 C           0.3940   -2.9772   -1.1260 C.3     1  UNL1        0.0124
     18 C          -0.7382   -2.6670   -0.1732 C.2     1  UNL1        0.1745
     19 C          -1.7322    0.0943    0.5120 C.ar    1  UNL1        0.1671
     20 C           3.4979    2.5317   -0.0073 C.3     1  UNL1       -0.0435
     21 C          -1.3179    2.1488   -1.3002 C.ar    1  UNL1       -0.0544
     22 C          -2.8148    0.8682    0.1630 C.ar    1  UNL1        0.1618
     23 C          -2.5951    1.9140   -0.7456 C.ar    1  UNL1       -0.0160
     24 C          -5.1121    1.4803    0.2212 C.3     1  UNL1        0.0790
     25 H           3.0441    0.3655   -1.5686 H       1  UNL1        0.0882
     26 H           1.8291   -0.6375    2.3485 H       1  UNL1        0.0328
     27 H           0.4065    0.3454    2.5931 H       1  UNL1        0.0328
     28 H          -0.1219   -2.2582    1.8300 H       1  UNL1        0.0824
     29 H           1.8732   -1.9659   -2.3009 H       1  UNL1        0.0299
     30 H           0.3261   -1.1269   -2.2180 H       1  UNL1        0.0299
     31 H           2.5697    1.6647    2.3751 H       1  UNL1        0.0814
     32 H           1.2891    2.1842    1.2660 H       1  UNL1        0.0814
     33 H           1.0283    1.1027   -2.5910 H       1  UNL1        0.0369
     34 H           1.4533    2.4820   -1.6010 H       1  UNL1        0.0369
     35 H           1.1080   -3.6297   -0.6132 H       1  UNL1        0.0344
     36 H          -0.0099   -3.5317   -1.9803 H       1  UNL1        0.0344
     37 H           3.1419   -1.1546    0.7649 H       1  UNL1        0.2105
     38 H           4.0864    2.4053   -0.9196 H       1  UNL1        0.0777
     39 H           2.6937    3.2567   -0.1391 H       1  UNL1        0.0777
     40 H           4.1412    2.8420    0.8223 H       1  UNL1        0.0777
     41 H          -1.1939    2.9357   -2.0396 H       1  UNL1        0.0622
     42 H          -3.3866    2.5719   -1.0920 H       1  UNL1        0.0655
     43 H          -6.0270    1.1419    0.7182 H       1  UNL1        0.0660
     44 H          -5.2823    1.4016   -0.8577 H       1  UNL1        0.0660
     45 H          -4.9355    2.5139    0.5374 H       1  UNL1        0.0660
@<TRIPOS>UNITY_ATOM_ATTR
3 1
charge -1
6 1
charge 1
@<TRIPOS>BOND
     1     1    11    1
     2     1    19    1
     3     2     8    1
     4     2    37    1
     5     3     6    1
     6     4    18    2
     7     5    22    1
     8     5    24    1
     9     6     9    1
    10     6    14    1
    11     6    20    1
    12     7     8    1
    13     7    10    1
    14     7    11    1
    15     7    12    1
    16     8     9    1
    17     8    13    1
    18     9    15    1
    19     9    25    1
    20    10    14    1
    21    10    26    1
    22    10    27    1
    23    11    18    1
    24    11    28    1
    25    12    16   ar
    26    12    19   ar
    27    13    17    1
    28    13    29    1
    29    13    30    1
    30    14    31    1
    31    14    32    1
    32    15    16    1
    33    15    33    1
    34    15    34    1
    35    16    21   ar
    36    17    18    1
    37    17    35    1
    38    17    36    1
    39    19    22   ar
    40    20    38    1
    41    20    39    1
    42    20    40    1
    43    21    23   ar
    44    21    41    1
    45    22    23   ar
    46    23    42    1
    47    24    43    1
    48    24    44    1
    49    24    45    1
@<TRIPOS>MOLECULE
46782660
 44 48 0 0 0
SMALL
GASTEIGER

@<TRIPOS>ATOM
      1 O          -1.5734    1.1044   -1.2497 O.3     1  UNL1       -0.4764
      2 O           2.8701    1.4896   -0.2595 O.3     1  UNL1       -0.3860
      3 O          -1.4849    3.2944    0.3374 O.2     1  UNL1       -0.2934
      4 O          -3.9468   -0.4474   -0.5479 O.3     1  UNL1       -0.4914
      5 N           2.9887   -1.2617   -0.4684 N.3     1  UNL1       -0.2993
      6 C           0.6892    0.5030   -0.6438 C.3     1  UNL1        0.0746
      7 C           1.8191    0.7379    0.3696 C.3     1  UNL1        0.0957
      8 C           2.3705   -0.6781    0.7506 C.3     1  UNL1        0.0438
      9 C          -0.2551    1.6728   -0.9649 C.3     1  UNL1        0.1701
     10 C           1.2635   -0.1632   -1.9164 C.3     1  UNL1       -0.0238
     11 C          -0.3383   -0.3973   -0.0496 C.ar    1  UNL1        0.0141
     12 C           1.3503    1.5803    1.5696 C.3     1  UNL1       -0.0147
     13 C           1.2774   -1.5836    1.4212 C.3     1  UNL1       -0.0089
     14 C           2.0664   -1.4376   -1.5948 C.3     1  UNL1        0.0000
     15 C          -0.1090   -1.4156    0.8560 C.ar    1  UNL1       -0.0382
     16 C           0.7442    2.9025    1.1017 C.3     1  UNL1        0.0123
     17 C          -0.4383    2.6611    0.1908 C.2     1  UNL1        0.1745
     18 C          -1.5975   -0.0411   -0.4885 C.ar    1  UNL1        0.1671
     19 C           3.7571   -2.4748   -0.2113 C.3     1  UNL1       -0.0124
     20 C          -1.2187   -2.1587    1.2580 C.ar    1  UNL1       -0.0546
     21 C          -2.7034   -0.7701   -0.1165 C.ar    1  UNL1        0.1618
     22 C          -2.5025   -1.8473    0.7592 C.ar    1  UNL1       -0.0160
     23 C          -5.0285   -1.2696   -0.1028 C.3     1  UNL1        0.0790
     24 H           3.1845   -0.5375    1.4748 H       1  UNL1        0.0494
     25 H           0.0809    2.2436   -1.8379 H       1  UNL1        0.0824
     26 H           0.4682   -0.4214   -2.6279 H       1  UNL1        0.0288
     27 H           1.9169    0.5491   -2.4373 H       1  UNL1        0.0288
     28 H           0.6148    1.0443    2.1790 H       1  UNL1        0.0298
     29 H           2.2032    1.8043    2.2221 H       1  UNL1        0.0298
     30 H           1.5601   -2.6403    1.3912 H       1  UNL1        0.0329
     31 H           1.2290   -1.3094    2.4835 H       1  UNL1        0.0329
     32 H           1.3771   -2.2701   -1.4065 H       1  UNL1        0.0427
     33 H           2.6339   -1.7090   -2.4938 H       1  UNL1        0.0427
     34 H           1.4736    3.5179    0.5652 H       1  UNL1        0.0344
     35 H           0.4035    3.4725    1.9732 H       1  UNL1        0.0344
     36 H           3.6123    1.5424    0.3665 H       1  UNL1        0.2103
     37 H           3.1256   -3.3365    0.0265 H       1  UNL1        0.0391
     38 H           4.3575   -2.7344   -1.0906 H       1  UNL1        0.0391
     39 H           4.4635   -2.3235    0.6121 H       1  UNL1        0.0391
     40 H          -1.1060   -2.9713    1.9709 H       1  UNL1        0.0622
     41 H          -3.3122   -2.4748    1.1197 H       1  UNL1        0.0655
     42 H          -4.9145   -2.3026   -0.4483 H       1  UNL1        0.0660
     43 H          -5.1552   -1.2088    0.9833 H       1  UNL1        0.0660
     44 H          -5.9432   -0.8756   -0.5574 H       1  UNL1        0.0660
@<TRIPOS>BOND
     1     1     9    1
     2     1    18    1
     3     2     7    1
     4     2    36    1
     5     3    17    2
     6     4    21    1
     7     4    23    1
     8     5     8    1
     9     5    14    1
    10     5    19    1
    11     6     7    1
    12     6     9    1
    13     6    10    1
    14     6    11    1
    15     7     8    1
    16     7    12    1
    17     8    13    1
    18     8    24    1
    19     9    17    1
    20     9    25    1
    21    10    14    1
    22    10    26    1
    23    10    27    1
    24    11    15   ar
    25    11    18   ar
    26    12    16    1
    27    12    28    1
    28    12    29    1
    29    13    15    1
    30    13    30    1
    31    13    31    1
    32    14    32    1
    33    14    33    1
    34    15    20   ar
    35    16    17    1
    36    16    34    1
    37    16    35    1
    38    18    21   ar
    39    19    37    1
    40    19    38    1
    41    19    39    1
    42    20    22   ar
    43    20    40    1
    44    21    22   ar
    45    22    41    1
    46    23    42    1
    47    23    43    1
    48    23    44    1
@<TRIPOS>MOLECULE
133688905
 49 53 0 0 0
SMALL
GASTEIGER

@<TRIPOS>ATOM
      1 O           1.9026    1.2938   -1.2621 O.3     1  UNL1       -0.4763
      2 O          -2.5922    0.7080   -0.4743 O.3     1  UNL1       -0.4556
      3 O           1.2817    3.4358    0.2648 O.2     1  UNL1       -0.2934
      4 O           4.5136    0.3004   -0.4070 O.3     1  UNL1       -0.4914
      5 O          -3.8393    0.3613    1.4390 O.2     1  UNL1       -0.2511
      6 N          -2.0753   -1.9859   -0.6206 N.3     1  UNL1       -0.2983
      7 C          -0.2074    0.2340   -0.7433 C.3     1  UNL1        0.0856
      8 C          -1.4154    0.2403    0.2060 C.3     1  UNL1        0.1430
      9 C          -1.6660   -1.2536    0.6073 C.3     1  UNL1        0.0550
     10 C           0.4814    1.5734   -1.0498 C.3     1  UNL1        0.1711
     11 C          -0.5560   -0.5658   -2.0203 C.3     1  UNL1       -0.0228
     12 C           0.9563   -0.4123   -0.0732 C.ar    1  UNL1        0.0152
     13 C          -1.2080    1.1841    1.4039 C.3     1  UNL1       -0.0035
     14 C          -0.4420   -1.8860    1.3591 C.3     1  UNL1       -0.0079
     15 C          -1.0793   -1.9780   -1.6968 C.3     1  UNL1        0.0001
     16 C           0.9035   -1.4365    0.8528 C.ar    1  UNL1       -0.0381
     17 C          -0.8476    2.5969    0.9465 C.3     1  UNL1        0.0133
     18 C           0.3989    2.5939    0.0903 C.2     1  UNL1        0.1746
     19 C           2.1318    0.1955   -0.4657 C.ar    1  UNL1        0.1672
     20 C          -2.5729   -3.3324   -0.3612 C.3     1  UNL1       -0.0123
     21 C           2.1242   -1.9164    1.3275 C.ar    1  UNL1       -0.0546
     22 C           3.3472   -0.2718   -0.0218 C.ar    1  UNL1        0.1618
     23 C           3.3361   -1.3482    0.8773 C.ar    1  UNL1       -0.0160
     24 C          -3.7303    0.7114    0.2718 C.2     1  UNL1        0.3045
     25 C          -4.8675    1.2193   -0.5618 C.3     1  UNL1        0.0333
     26 C           5.7217   -0.2613    0.1115 C.3     1  UNL1        0.0790
     27 H          -2.4990   -1.3498    1.3068 H       1  UNL1        0.0505
     28 H           0.0744    2.0479   -1.9498 H       1  UNL1        0.0824
     29 H           0.3118   -0.6580   -2.6865 H       1  UNL1        0.0289
     30 H          -1.3211   -0.0230   -2.5908 H       1  UNL1        0.0289
     31 H          -0.3756    0.8215    2.0202 H       1  UNL1        0.0309
     32 H          -2.0360    1.2651    2.1069 H       1  UNL1        0.0309
     33 H          -0.4885   -2.9794    1.3509 H       1  UNL1        0.0330
     34 H          -0.5078   -1.5839    2.4130 H       1  UNL1        0.0330
     35 H          -1.5269   -2.3845   -2.6125 H       1  UNL1        0.0427
     36 H          -0.2366   -2.6362   -1.4513 H       1  UNL1        0.0427
     37 H          -0.6620    3.2253    1.8248 H       1  UNL1        0.0344
     38 H          -1.6599    3.0548    0.3728 H       1  UNL1        0.0344
     39 H          -3.3416   -3.3231    0.4192 H       1  UNL1        0.0391
     40 H          -1.7829   -4.0288   -0.0634 H       1  UNL1        0.0391
     41 H          -3.0513   -3.7369   -1.2604 H       1  UNL1        0.0391
     42 H           2.1508   -2.7191    2.0596 H       1  UNL1        0.0622
     43 H           4.2414   -1.7802    1.2933 H       1  UNL1        0.0655
     44 H          -4.6610    2.2424   -0.8860 H       1  UNL1        0.0342
     45 H          -5.7829    1.2214    0.0367 H       1  UNL1        0.0342
     46 H          -5.0165    0.5640   -1.4237 H       1  UNL1        0.0342
     47 H           6.5532    0.3097   -0.3140 H       1  UNL1        0.0660
     48 H           5.8478   -1.3018   -0.2062 H       1  UNL1        0.0660
     49 H           5.7776   -0.1519    1.1997 H       1  UNL1        0.0660
@<TRIPOS>BOND
     1     1    10    1
     2     1    19    1
     3     2     8    1
     4     2    24    1
     5     3    18    2
     6     4    22    1
     7     4    26    1
     8     5    24    2
     9     6     9    1
    10     6    15    1
    11     6    20    1
    12     7     8    1
    13     7    10    1
    14     7    11    1
    15     7    12    1
    16     8     9    1
    17     8    13    1
    18     9    14    1
    19     9    27    1
    20    10    18    1
    21    10    28    1
    22    11    15    1
    23    11    29    1
    24    11    30    1
    25    12    16   ar
    26    12    19   ar
    27    13    17    1
    28    13    31    1
    29    13    32    1
    30    14    16    1
    31    14    33    1
    32    14    34    1
    33    15    35    1
    34    15    36    1
    35    16    21   ar
    36    17    18    1
    37    17    37    1
    38    17    38    1
    39    19    22   ar
    40    20    39    1
    41    20    40    1
    42    20    41    1
    43    21    23   ar
    44    21    42    1
    45    22    23   ar
    46    23    43    1
    47    24    25    1
    48    25    44    1
    49    25    45    1
    50    25    46    1
    51    26    47    1
    52    26    48    1
    53    26    49    1
@<TRIPOS>MOLECULE
398247
 49 53 0 0 0
SMALL
GASTEIGER

@<TRIPOS>ATOM
      1 O          -1.8972    1.6363   -0.0707 O.3     1  UNL1       -0.4763
      2 O           1.5108    0.1511    1.4491 O.3     1  UNL1       -0.4556
      3 O          -0.0279    3.8399   -1.0341 O.2     1  UNL1       -0.2934
      4 O          -4.3997    0.3076    0.8254 O.3     1  UNL1       -0.4914
      5 O           3.7761   -0.3016    1.4262 O.2     1  UNL1       -0.2511
      6 N           1.8092   -1.4209   -1.9043 N.3     1  UNL1       -0.2983
      7 C           0.1024    0.4529   -0.5193 C.3     1  UNL1        0.0856
      8 C           1.4846    0.1024    0.0155 C.3     1  UNL1        0.1430
      9 C           1.7321   -1.3740   -0.4285 C.3     1  UNL1        0.0550
     10 C          -0.4707    1.7370    0.0689 C.3     1  UNL1        0.1711
     11 C           0.0488    0.3431   -2.0708 C.3     1  UNL1       -0.0228
     12 C          -0.9322   -0.4365    0.0313 C.ar    1  UNL1        0.0152
     13 C           2.4561    1.2027   -0.4783 C.3     1  UNL1       -0.0035
     14 C           0.6377   -2.3453    0.2134 C.3     1  UNL1       -0.0079
     15 C           0.5701   -1.0149   -2.5744 C.3     1  UNL1        0.0001
     16 C          -0.7560   -1.7679    0.3351 C.ar    1  UNL1       -0.0381
     17 C           1.9247    2.6399   -0.2102 C.3     1  UNL1        0.0133
     18 C           0.4214    2.8380   -0.4864 C.2     1  UNL1        0.1746
     19 C          -2.0975    0.2902    0.2115 C.ar    1  UNL1        0.1672
     20 C           2.2982   -2.6962   -2.4173 C.3     1  UNL1       -0.0123
     21 C          -1.8891   -2.4261    0.8004 C.ar    1  UNL1       -0.0546
     22 C          -3.2291   -0.3494    0.6484 C.ar    1  UNL1        0.1618
     23 C          -3.1161   -1.7239    0.9392 C.ar    1  UNL1       -0.0160
     24 C           2.7286   -0.0706    2.0151 C.2     1  UNL1        0.3045
     25 C           2.6047    0.0109    3.5064 C.3     1  UNL1        0.0333
     26 C          -5.2899    0.3753   -0.2918 C.3     1  UNL1        0.0790
     27 H           2.6995   -1.7261   -0.0571 H       1  UNL1        0.0505
     28 H          -0.3051    1.8139    1.1577 H       1  UNL1        0.0824
     29 H           0.6422    1.1380   -2.5374 H       1  UNL1        0.0289
     30 H          -0.9727    0.4848   -2.4487 H       1  UNL1        0.0289
     31 H           2.5912    1.1121   -1.5630 H       1  UNL1        0.0309
     32 H           3.4744    1.1615   -0.0936 H       1  UNL1        0.0309
     33 H           0.9737   -2.5852    1.2310 H       1  UNL1        0.0330
     34 H           0.5910   -3.2940   -0.3301 H       1  UNL1        0.0330
     35 H          -0.2089   -1.7782   -2.4547 H       1  UNL1        0.0427
     36 H           0.7472   -0.9262   -3.6537 H       1  UNL1        0.0427
     37 H           2.4851    3.3513   -0.8267 H       1  UNL1        0.0344
     38 H           2.0937    2.9033    0.8404 H       1  UNL1        0.0344
     39 H           2.5074   -2.6162   -3.4902 H       1  UNL1        0.0391
     40 H           1.5851   -3.5145   -2.2770 H       1  UNL1        0.0391
     41 H           3.2438   -2.9740   -1.9388 H       1  UNL1        0.0391
     42 H          -1.8441   -3.4774    1.0703 H       1  UNL1        0.0622
     43 H          -3.9866   -2.2666    1.3031 H       1  UNL1        0.0655
     44 H           1.9088   -0.7531    3.8623 H       1  UNL1        0.0342
     45 H           2.2637    1.0081    3.7956 H       1  UNL1        0.0342
     46 H           3.5826   -0.1691    3.9619 H       1  UNL1        0.0342
     47 H          -4.8161    0.9025   -1.1258 H       1  UNL1        0.0660
     48 H          -6.1812    0.9295    0.0142 H       1  UNL1        0.0660
     49 H          -5.5894   -0.6307   -0.6023 H       1  UNL1        0.0660
@<TRIPOS>BOND
     1     1    10    1
     2     1    19    1
     3     2     8    1
     4     2    24    1
     5     3    18    2
     6     4    22    1
     7     4    26    1
     8     5    24    2
     9     6     9    1
    10     6    15    1
    11     6    20    1
    12     7     8    1
    13     7    10    1
    14     7    11    1
    15     7    12    1
    16     8     9    1
    17     8    13    1
    18     9    14    1
    19     9    27    1
    20    10    18    1
    21    10    28    1
    22    11    15    1
    23    11    29    1
    24    11    30    1
    25    12    16   ar
    26    12    19   ar
    27    13    17    1
    28    13    31    1
    29    13    32    1
    30    14    16    1
    31    14    33    1
    32    14    34    1
    33    15    35    1
    34    15    36    1
    35    16    21   ar
    36    17    18    1
    37    17    37    1
    38    17    38    1
    39    19    22   ar
    40    20    39    1
    41    20    40    1
    42    20    41    1
    43    21    23   ar
    44    21    42    1
    45    22    23   ar
    46    23    43    1
    47    24    25    1
    48    25    44    1
    49    25    45    1
    50    25    46    1
    51    26    47    1
    52    26    48    1
    53    26    49    1
@<TRIPOS>MOLECULE
53637770
 49 53 0 0 0
SMALL
GASTEIGER

@<TRIPOS>ATOM
      1 O          -0.0209   -1.9280   -0.3981 O.3     1  UNL1       -0.4762
      2 O          -1.7427    2.3883   -0.0234 O.3     1  UNL1       -0.3857
      3 O          -2.9933   -1.7970    0.2744 O.3     1  UNL1       -0.4269
      4 O           2.5713   -3.3907   -0.4072 O.3     1  UNL1       -0.4914
      5 O          -4.4121   -0.1492   -0.5588 O.2     1  UNL1       -0.2507
      6 N           0.6168    3.1295   -0.8428 N.3     1  UNL1       -0.2993
      7 C          -0.1927    0.4500   -0.1839 C.3     1  UNL1        0.0751
      8 C          -0.6603    1.6658    0.6359 C.3     1  UNL1        0.0988
      9 C           0.5425    2.6575    0.5789 C.3     1  UNL1        0.0441
     10 C          -0.7089   -0.8932    0.3381 C.3     1  UNL1        0.1695
     11 C          -0.2331    0.8440   -1.6716 C.3     1  UNL1       -0.0238
     12 C           1.2021   -0.0298    0.0490 C.ar    1  UNL1        0.0141
     13 C          -1.3363    1.2156    1.9532 C.3     1  UNL1        0.0002
     14 C           1.8946    2.0680    1.1169 C.3     1  UNL1       -0.0089
     15 C           0.6773    2.0912   -1.8933 C.3     1  UNL1        0.0000
     16 C           2.2304    0.7020    0.5874 C.ar    1  UNL1       -0.0382
     17 C           1.2716   -1.3989   -0.2369 C.ar    1  UNL1        0.1671
     18 C          -2.1406   -0.8294    0.7188 C.2     1  UNL1        0.1462
     19 C          -2.4220    0.1525    1.6110 C.2     1  UNL1       -0.0392
     20 C           1.5933    4.1868   -1.0686 C.3     1  UNL1       -0.0124
     21 C           3.4485    0.0377    0.7054 C.ar    1  UNL1       -0.0546
     22 C           2.4652   -2.0679   -0.1444 C.ar    1  UNL1        0.1618
     23 C           3.5679   -1.3232    0.3137 C.ar    1  UNL1       -0.0160
     24 C          -4.1188   -1.3216   -0.3626 C.2     1  UNL1        0.3090
     25 C           3.8665   -3.9845   -0.2787 C.3     1  UNL1        0.0790
     26 C          -4.9666   -2.4755   -0.8122 C.3     1  UNL1        0.0336
     27 H           0.2908    3.5347    1.1897 H       1  UNL1        0.0494
     28 H          -0.3204   -1.0912    1.3671 H       1  UNL1        0.0826
     29 H          -1.2607    1.0707   -1.9807 H       1  UNL1        0.0288
     30 H           0.1038    0.0382   -2.3363 H       1  UNL1        0.0288
     31 H          -1.8372    2.0641    2.4346 H       1  UNL1        0.0337
     32 H          -0.6198    0.8034    2.6718 H       1  UNL1        0.0337
     33 H           1.8071    1.9813    2.2079 H       1  UNL1        0.0329
     34 H           2.7248    2.7554    0.9249 H       1  UNL1        0.0329
     35 H           1.7130    1.7478   -2.0143 H       1  UNL1        0.0427
     36 H           0.3955    2.5401   -2.8540 H       1  UNL1        0.0427
     37 H          -3.4069    0.2590    2.0523 H       1  UNL1        0.0607
     38 H          -1.9070    3.2025    0.4828 H       1  UNL1        0.2103
     39 H           1.4921    4.9802   -0.3202 H       1  UNL1        0.0391
     40 H           1.4252    4.6561   -2.0445 H       1  UNL1        0.0391
     41 H           2.6238    3.8179   -1.0483 H       1  UNL1        0.0391
     42 H           4.3129    0.5476    1.1228 H       1  UNL1        0.0622
     43 H           4.5548   -1.7598    0.4410 H       1  UNL1        0.0655
     44 H           3.7699   -5.0380   -0.5602 H       1  UNL1        0.0660
     45 H           4.2153   -3.9562    0.7590 H       1  UNL1        0.0660
     46 H           4.5854   -3.5285   -0.9676 H       1  UNL1        0.0660
     47 H          -4.4117   -3.0839   -1.5307 H       1  UNL1        0.0342
     48 H          -5.8691   -2.0949   -1.2990 H       1  UNL1        0.0342
     49 H          -5.2644   -3.0747    0.0519 H       1  UNL1        0.0342
@<TRIPOS>BOND
     1     1    10    1
     2     1    17    1
     3     2     8    1
     4     2    38    1
     5     3    18    1
     6     3    24    1
     7     4    22    1
     8     4    25    1
     9     5    24    2
    10     6     9    1
    11     6    15    1
    12     6    20    1
    13     7     8    1
    14     7    10    1
    15     7    11    1
    16     7    12    1
    17     8     9    1
    18     8    13    1
    19     9    14    1
    20     9    27    1
    21    10    18    1
    22    10    28    1
    23    11    15    1
    24    11    29    1
    25    11    30    1
    26    12    16   ar
    27    12    17   ar
    28    13    19    1
    29    13    31    1
    30    13    32    1
    31    14    16    1
    32    14    33    1
    33    14    34    1
    34    15    35    1
    35    15    36    1
    36    16    21   ar
    37    17    22   ar
    38    18    19    2
    39    19    37    1
    40    20    39    1
    41    20    40    1
    42    20    41    1
    43    21    23   ar
    44    21    42    1
    45    22    23   ar
    46    23    43    1
    47    24    26    1
    48    25    44    1
    49    25    45    1
    50    25    46    1
    51    26    47    1
    52    26    48    1
    53    26    49    1
@<TRIPOS>MOLECULE
129630659
 47 51 0 0 0
SMALL
GASTEIGER

@<TRIPOS>ATOM
      1 O           1.7846   -1.0501   -1.2852 O.3     1  UNL1       -0.4764
      2 O          -2.6412   -1.4956   -0.1809 O.3     1  UNL1       -0.3872
      3 O           1.7792   -3.2472    0.2875 O.2     1  UNL1       -0.2934
      4 O           4.1593    0.5128   -0.6157 O.3     1  UNL1       -0.4914
      5 N          -4.0131    0.8040   -0.7804 N.3     1  UNL1       -0.3159
      6 C          -0.4690   -0.4827   -0.6159 C.3     1  UNL1        0.0723
      7 C          -1.5736   -0.7503    0.4192 C.3     1  UNL1        0.0845
      8 C          -2.1221    0.6556    0.8516 C.3     1  UNL1        0.0082
      9 C          -1.0617    0.1874   -1.8829 C.3     1  UNL1       -0.0353
     10 C           0.4831   -1.6401   -0.9675 C.3     1  UNL1        0.1700
     11 C          -2.7491    1.4205   -0.3617 C.3     1  UNL1        0.0131
     12 C           0.5645    0.4152   -0.0266 C.ar    1  UNL1        0.0140
     13 C          -1.0737   -1.6055    1.5988 C.3     1  UNL1       -0.0159
     14 C          -1.8013    1.4987   -1.5714 C.3     1  UNL1       -0.0362
     15 C          -1.0168    1.5420    1.5258 C.3     1  UNL1       -0.0204
     16 C           0.3514    1.4064    0.9126 C.ar    1  UNL1       -0.0393
     17 C          -0.4330   -2.9066    1.1187 C.3     1  UNL1        0.0122
     18 C           0.7167   -2.6329    0.1760 C.2     1  UNL1        0.1745
     19 C           1.8162    0.0824   -0.5046 C.ar    1  UNL1        0.1671
     20 C           1.4644    2.1515    1.3027 C.ar    1  UNL1       -0.0546
     21 C           2.9249    0.8136   -0.1449 C.ar    1  UNL1        0.1618
     22 C           2.7371    1.8672    0.7613 C.ar    1  UNL1       -0.0160
     23 C          -5.0717    1.1187    0.1637 C.3     1  UNL1       -0.0155
     24 C           5.2449    1.3350   -0.1803 C.3     1  UNL1        0.0790
     25 H          -2.8961    0.5110    1.6140 H       1  UNL1        0.0347
     26 H          -1.7532   -0.5077   -2.3759 H       1  UNL1        0.0276
     27 H          -0.2771    0.4025   -2.6205 H       1  UNL1        0.0276
     28 H           0.1314   -2.2111   -1.8343 H       1  UNL1        0.0824
     29 H          -2.9574    2.4583   -0.0675 H       1  UNL1        0.0464
     30 H          -1.9138   -1.8586    2.2576 H       1  UNL1        0.0297
     31 H          -0.3454   -1.0621    2.2103 H       1  UNL1        0.0297
     32 H          -1.0600    2.2863   -1.3843 H       1  UNL1        0.0281
     33 H          -2.3367    1.8328   -2.4697 H       1  UNL1        0.0281
     34 H          -0.9343    1.2382    2.5775 H       1  UNL1        0.0317
     35 H          -1.3204    2.5954    1.5232 H       1  UNL1        0.0317
     36 H          -1.1574   -3.5425    0.5992 H       1  UNL1        0.0344
     37 H          -0.0547   -3.4655    1.9817 H       1  UNL1        0.0344
     38 H          -3.3633   -1.5578    0.4674 H       1  UNL1        0.2102
     39 H          -4.2823    1.1675   -1.6946 H       1  UNL1        0.1219
     40 H           1.3632    2.9437    2.0398 H       1  UNL1        0.0622
     41 H           3.5499    2.4942    1.1155 H       1  UNL1        0.0655
     42 H          -4.9316    0.6379    1.1351 H       1  UNL1        0.0388
     43 H          -6.0201    0.7389   -0.2314 H       1  UNL1        0.0388
     44 H          -5.1917    2.1978    0.3066 H       1  UNL1        0.0388
     45 H           6.1507    0.9608   -0.6681 H       1  UNL1        0.0660
     46 H           5.4010    1.2504    0.9003 H       1  UNL1        0.0660
     47 H           5.1121    2.3746   -0.4984 H       1  UNL1        0.0660
@<TRIPOS>BOND
     1     1    10    1
     2     1    19    1
     3     2     7    1
     4     2    38    1
     5     3    18    2
     6     4    21    1
     7     4    24    1
     8     5    11    1
     9     5    23    1
    10     5    39    1
    11     6     7    1
    12     6     9    1
    13     6    10    1
    14     6    12    1
    15     7     8    1
    16     7    13    1
    17     8    11    1
    18     8    15    1
    19     8    25    1
    20     9    14    1
    21     9    26    1
    22     9    27    1
    23    10    18    1
    24    10    28    1
    25    11    14    1
    26    11    29    1
    27    12    16   ar
    28    12    19   ar
    29    13    17    1
    30    13    30    1
    31    13    31    1
    32    14    32    1
    33    14    33    1
    34    15    16    1
    35    15    34    1
    36    15    35    1
    37    16    20   ar
    38    17    18    1
    39    17    36    1
    40    17    37    1
    41    19    21   ar
    42    20    22   ar
    43    20    40    1
    44    21    22   ar
    45    22    41    1
    46    23    42    1
    47    23    43    1
    48    23    44    1
    49    24    45    1
    50    24    46    1
    51    24    47    1
@<TRIPOS>MOLECULE
158063059
 67 71 0 0 0
SMALL
GASTEIGER

@<TRIPOS>ATOM
      1 O          -0.3628    0.6824    1.4950 O.3     1  UNL1       -0.4762
      2 O          -3.9940    2.0667   -0.8557 O.3     1  UNL1       -0.3857
      3 O           0.4500    2.9106   -0.1968 O.3     1  UNL1       -0.4252
      4 O           1.3574   -1.6412    1.8742 O.3     1  UNL1       -0.4914
      5 O           1.8099    1.0257   -0.3170 O.2     1  UNL1       -0.2478
      6 O           3.9888    2.5429    0.1865 O.3     1  UNL1       -0.3663
      7 O           4.8283   -0.1056    0.2994 O.3     1  UNL1       -0.3752
      8 O           5.1160   -1.3926   -2.1715 O.3     1  UNL1       -0.3807
      9 N          -5.2570   -0.2734   -0.0697 N.3     1  UNL1       -0.2993
     10 C          -2.5434    0.6208    0.4320 C.3     1  UNL1        0.0751
     11 C          -3.2331    0.8488   -0.9211 C.3     1  UNL1        0.0988
     12 C          -4.2129   -0.3592   -1.1231 C.3     1  UNL1        0.0441
     13 C          -1.3311    1.5167    0.7648 C.3     1  UNL1        0.1695
     14 C          -3.5885    0.6018    1.5712 C.3     1  UNL1       -0.0238
     15 C          -1.8287   -0.6842    0.3934 C.ar    1  UNL1        0.0141
     16 C          -2.2296    1.0358   -2.0818 C.3     1  UNL1        0.0002
     17 C          -3.4573   -1.7377   -1.1677 C.3     1  UNL1       -0.0089
     18 C          -4.7402   -0.3807    1.2978 C.3     1  UNL1        0.0000
     19 C          -2.2415   -1.8196   -0.2794 C.ar    1  UNL1       -0.0382
     20 C          -0.6289   -0.5961    1.0672 C.ar    1  UNL1        0.1671
     21 C          -0.6488    2.1114   -0.4472 C.2     1  UNL1        0.1463
     22 C          -1.0493    1.8920   -1.7084 C.2     1  UNL1       -0.0392
     23 C          -6.3828   -1.1750   -0.2888 C.3     1  UNL1       -0.0124
     24 C          -1.4289   -2.9474   -0.1640 C.ar    1  UNL1       -0.0546
     25 C           0.1819   -1.7000    1.2024 C.ar    1  UNL1        0.1618
     26 C          -0.2356   -2.8899    0.5879 C.ar    1  UNL1       -0.0160
     27 C           1.6401    2.2276   -0.1575 C.2     1  UNL1        0.3382
     28 C           2.1254   -2.8441    1.9572 C.3     1  UNL1        0.0790
     29 C           2.7456    3.2133    0.1312 C.3     1  UNL1        0.1449
     30 C           4.1880    1.8991    1.4410 C.3     1  UNL1        0.0717
     31 C           5.2509    0.8289    1.2851 C.3     1  UNL1        0.0711
     32 C           5.7895   -1.1346    0.1114 C.3     1  UNL1        0.0711
     33 C           5.2849   -2.0964   -0.9469 C.3     1  UNL1        0.0706
     34 C           4.6378   -2.2466   -3.2011 C.3     1  UNL1        0.0365
     35 H          -4.7255   -0.2193   -2.0846 H       1  UNL1        0.0494
     36 H          -1.6238    2.3380    1.4308 H       1  UNL1        0.0826
     37 H          -4.0058    1.6098    1.6957 H       1  UNL1        0.0288
     38 H          -3.1259    0.3420    2.5325 H       1  UNL1        0.0288
     39 H          -2.7387    1.5156   -2.9273 H       1  UNL1        0.0337
     40 H          -1.8397    0.0819   -2.4515 H       1  UNL1        0.0337
     41 H          -3.1161   -1.8924   -2.1999 H       1  UNL1        0.0329
     42 H          -4.1296   -2.5713   -0.9422 H       1  UNL1        0.0329
     43 H          -4.4130   -1.4054    1.5135 H       1  UNL1        0.0427
     44 H          -5.5430   -0.1597    2.0124 H       1  UNL1        0.0427
     45 H          -0.4909    2.3354   -2.5291 H       1  UNL1        0.0607
     46 H          -4.5327    2.1242   -1.6632 H       1  UNL1        0.2103
     47 H          -6.7790   -1.0661   -1.3042 H       1  UNL1        0.0391
     48 H          -6.1257   -2.2265   -0.1274 H       1  UNL1        0.0391
     49 H          -7.2043   -0.9248    0.3922 H       1  UNL1        0.0391
     50 H          -1.6976   -3.8715   -0.6690 H       1  UNL1        0.0622
     51 H           0.3393   -3.8102    0.6293 H       1  UNL1        0.0655
     52 H           2.4511   -3.1797    0.9672 H       1  UNL1        0.0660
     53 H           3.0280   -2.6129    2.5321 H       1  UNL1        0.0660
     54 H           1.5852   -3.6262    2.5011 H       1  UNL1        0.0660
     55 H           2.5478    3.7533    1.0634 H       1  UNL1        0.0677
     56 H           2.7912    3.9253   -0.6985 H       1  UNL1        0.0677
     57 H           3.2620    1.4297    1.7928 H       1  UNL1        0.0583
     58 H           4.5032    2.6451    2.1783 H       1  UNL1        0.0583
     59 H           6.1901    1.2886    0.9561 H       1  UNL1        0.0583
     60 H           5.4124    0.3195    2.2415 H       1  UNL1        0.0583
     61 H           5.9510   -1.6700    1.0535 H       1  UNL1        0.0583
     62 H           6.7334   -0.6844   -0.2174 H       1  UNL1        0.0583
     63 H           6.0031   -2.9123   -1.0829 H       1  UNL1        0.0582
     64 H           4.3177   -2.5107   -0.6410 H       1  UNL1        0.0582
     65 H           4.5292   -1.6566   -4.1151 H       1  UNL1        0.0524
     66 H           5.3498   -3.0557   -3.3906 H       1  UNL1        0.0524
     67 H           3.6600   -2.6592   -2.9342 H       1  UNL1        0.0524
@<TRIPOS>BOND
     1     1    13    1
     2     1    20    1
     3     2    11    1
     4     2    46    1
     5     3    21    1
     6     3    27    1
     7     4    25    1
     8     4    28    1
     9     5    27    2
    10     6    29    1
    11     6    30    1
    12     7    31    1
    13     7    32    1
    14     8    33    1
    15     8    34    1
    16     9    12    1
    17     9    18    1
    18     9    23    1
    19    10    11    1
    20    10    13    1
    21    10    14    1
    22    10    15    1
    23    11    12    1
    24    11    16    1
    25    12    17    1
    26    12    35    1
    27    13    21    1
    28    13    36    1
    29    14    18    1
    30    14    37    1
    31    14    38    1
    32    15    19   ar
    33    15    20   ar
    34    16    22    1
    35    16    39    1
    36    16    40    1
    37    17    19    1
    38    17    41    1
    39    17    42    1
    40    18    43    1
    41    18    44    1
    42    19    24   ar
    43    20    25   ar
    44    21    22    2
    45    22    45    1
    46    23    47    1
    47    23    48    1
    48    23    49    1
    49    24    26   ar
    50    24    50    1
    51    25    26   ar
    52    26    51    1
    53    27    29    1
    54    28    52    1
    55    28    53    1
    56    28    54    1
    57    29    55    1
    58    29    56    1
    59    30    31    1
    60    30    57    1
    61    30    58    1
    62    31    59    1
    63    31    60    1
    64    32    33    1
    65    32    61    1
    66    32    62    1
    67    33    63    1
    68    33    64    1
    69    34    65    1
    70    34    66    1
    71    34    67    1
@<TRIPOS>MOLECULE
91750496
 49 53 0 0 0
SMALL
GASTEIGER

@<TRIPOS>ATOM
      1 O          -1.7591    1.7829   -0.3059 O.3     1  UNL1       -0.4763
      2 O           1.3925    0.0952    1.5243 O.3     1  UNL1       -0.4556
      3 O           0.3268    3.8594   -1.0906 O.2     1  UNL1       -0.2934
      4 O          -4.4131    0.6183    0.3518 O.3     1  UNL1       -0.4914
      5 O           3.6170   -0.4987    1.7123 O.2     1  UNL1       -0.2511
      6 N           1.9017   -1.5111   -1.7874 N.3     1  UNL1       -0.2983
      7 C           0.1949    0.4739   -0.5667 C.3     1  UNL1        0.0856
      8 C           1.4966    0.0404    0.0945 C.3     1  UNL1        0.1430
      9 C           1.6909   -1.4512   -0.3250 C.3     1  UNL1        0.0550
     10 C          -0.3485    1.7947   -0.0341 C.3     1  UNL1        0.1711
     11 C           0.2791    0.3590   -2.1164 C.3     1  UNL1       -0.0228
     12 C          -0.9403   -0.3459   -0.1151 C.ar    1  UNL1        0.0152
     13 C           2.5772    1.0747   -0.3062 C.3     1  UNL1       -0.0035
     14 C           0.4826   -2.3484    0.2117 C.3     1  UNL1       -0.0079
     15 C           0.7582   -1.0317   -2.5696 C.3     1  UNL1        0.0001
     16 C          -0.8773   -1.6841    0.2031 C.ar    1  UNL1       -0.0381
     17 C           2.1147    2.5440   -0.0885 C.3     1  UNL1        0.0133
     18 C           0.6591    2.8345   -0.5037 C.2     1  UNL1        0.1746
     19 C          -2.0692    0.4534   -0.0441 C.ar    1  UNL1        0.1672
     20 C           2.3547   -2.8173   -2.2531 C.3     1  UNL1       -0.0123
     21 C          -2.0880   -2.2675    0.5602 C.ar    1  UNL1       -0.0546
     22 C          -3.2747   -0.1116    0.2847 C.ar    1  UNL1        0.1618
     23 C          -3.2760   -1.4890    0.5839 C.ar    1  UNL1       -0.0160
     24 C           2.5361   -0.1992    2.2012 C.2     1  UNL1        0.3045
     25 C           2.2792   -0.1028    3.6745 C.3     1  UNL1        0.0333
     26 C          -5.6152   -0.0718    0.7040 C.3     1  UNL1        0.0790
     27 H           2.5955   -1.8612    0.1347 H       1  UNL1        0.0505
     28 H          -0.2803    1.8671    1.0655 H       1  UNL1        0.0824
     29 H           0.9623    1.1124   -2.5255 H       1  UNL1        0.0289
     30 H          -0.6918    0.5625   -2.5879 H       1  UNL1        0.0289
     31 H           2.8067    0.9698   -1.3736 H       1  UNL1        0.0309
     32 H           3.5507    0.9719    0.1718 H       1  UNL1        0.0309
     33 H           0.7067   -2.6032    1.2562 H       1  UNL1        0.0330
     34 H           0.4271   -3.2954   -0.3340 H       1  UNL1        0.0330
     35 H          -0.0750   -1.7438   -2.5233 H       1  UNL1        0.0427
     36 H           1.0401   -0.9603   -3.6277 H       1  UNL1        0.0427
     37 H           2.7738    3.2153   -0.6499 H       1  UNL1        0.0344
     38 H           2.2014    2.8022    0.9733 H       1  UNL1        0.0344
     39 H           3.2323   -3.1514   -1.6888 H       1  UNL1        0.0391
     40 H           2.6672   -2.7565   -3.3018 H       1  UNL1        0.0391
     41 H           1.5814   -3.5884   -2.1802 H       1  UNL1        0.0391
     42 H          -2.1337   -3.3185    0.8319 H       1  UNL1        0.0622
     43 H          -4.1775   -2.0247    0.8683 H       1  UNL1        0.0655
     44 H           1.9742    0.9147    3.9315 H       1  UNL1        0.0342
     45 H           3.1978   -0.3394    4.2190 H       1  UNL1        0.0342
     46 H           1.5081   -0.8213    3.9636 H       1  UNL1        0.0342
     47 H          -6.4261    0.6636    0.6935 H       1  UNL1        0.0660
     48 H          -5.5588   -0.4775    1.7196 H       1  UNL1        0.0660
     49 H          -5.8656   -0.8408   -0.0345 H       1  UNL1        0.0660
@<TRIPOS>BOND
     1     1    10    1
     2     1    19    1
     3     2     8    1
     4     2    24    1
     5     3    18    2
     6     4    22    1
     7     4    26    1
     8     5    24    2
     9     6     9    1
    10     6    15    1
    11     6    20    1
    12     7     8    1
    13     7    10    1
    14     7    11    1
    15     7    12    1
    16     8     9    1
    17     8    13    1
    18     9    14    1
    19     9    27    1
    20    10    18    1
    21    10    28    1
    22    11    15    1
    23    11    29    1
    24    11    30    1
    25    12    16   ar
    26    12    19   ar
    27    13    17    1
    28    13    31    1
    29    13    32    1
    30    14    16    1
    31    14    33    1
    32    14    34    1
    33    15    35    1
    34    15    36    1
    35    16    21   ar
    36    17    18    1
    37    17    37    1
    38    17    38    1
    39    19    22   ar
    40    20    39    1
    41    20    40    1
    42    20    41    1
    43    21    23   ar
    44    21    42    1
    45    22    23   ar
    46    23    43    1
    47    24    25    1
    48    25    44    1
    49    25    45    1
    50    25    46    1
    51    26    47    1
    52    26    48    1
    53    26    49    1
@<TRIPOS>MOLECULE
5284604
 41 45 0 0 0
SMALL
GASTEIGER

@<TRIPOS>ATOM
      1 O          -1.9793   -0.6326    1.2642 O.3     1  UNL1       -0.4764
      2 O           2.2636   -1.9798    0.2361 O.3     1  UNL1       -0.3860
      3 O          -2.3860   -2.7779   -0.3344 O.2     1  UNL1       -0.2934
      4 O          -3.9577    1.4086    0.5898 O.3     1  UNL1       -0.5033
      5 N           2.9859    0.6768    0.4563 N.3     1  UNL1       -0.2993
      6 C           0.3557   -0.5401    0.6425 C.3     1  UNL1        0.0746
      7 C           1.3992   -1.0114   -0.3812 C.3     1  UNL1        0.0957
      8 C           2.2459    0.2509   -0.7602 C.3     1  UNL1        0.0438
      9 C          -0.8206   -1.4753    0.9659 C.3     1  UNL1        0.1701
     10 C           1.0713   -0.0242    1.9133 C.3     1  UNL1       -0.0238
     11 C          -0.4526    0.5681    0.0608 C.ar    1  UNL1        0.0141
     12 C           0.7483   -1.7226   -1.5809 C.3     1  UNL1       -0.0147
     13 C           1.3742    1.3787   -1.4180 C.3     1  UNL1       -0.0089
     14 C           2.1324    1.0444    1.5908 C.3     1  UNL1        0.0000
     15 C          -0.0109    1.5167   -0.8418 C.ar    1  UNL1       -0.0382
     16 C          -0.1306   -2.8819   -1.1142 C.3     1  UNL1        0.0123
     17 C          -1.2247   -2.3917   -0.1929 C.2     1  UNL1        0.1745
     18 C          -1.7560    0.4951    0.5087 C.ar    1  UNL1        0.1669
     19 C           4.0005    1.6928    0.1984 C.3     1  UNL1       -0.0124
     20 C          -0.9325    2.4888   -1.2305 C.ar    1  UNL1       -0.0546
     21 C          -2.6767    1.4522    0.1496 C.ar    1  UNL1        0.1588
     22 C          -2.2497    2.4646   -0.7222 C.ar    1  UNL1       -0.0162
     23 H           3.0041   -0.0633   -1.4904 H       1  UNL1        0.0494
     24 H          -0.6128   -2.1115    1.8337 H       1  UNL1        0.0824
     25 H           1.5550   -0.8644    2.4284 H       1  UNL1        0.0288
     26 H           0.3567    0.3993    2.6314 H       1  UNL1        0.0288
     27 H           1.5293   -2.1261   -2.2372 H       1  UNL1        0.0298
     28 H           0.1463   -1.0347   -2.1840 H       1  UNL1        0.0298
     29 H           1.2590    1.1281   -2.4809 H       1  UNL1        0.0329
     30 H           1.8831    2.3471   -1.3860 H       1  UNL1        0.0329
     31 H           1.6418    2.0092    1.4117 H       1  UNL1        0.0427
     32 H           2.7519    1.1789    2.4865 H       1  UNL1        0.0427
     33 H           0.4415   -3.6589   -0.5984 H       1  UNL1        0.0344
     34 H          -0.5990   -3.3479   -1.9887 H       1  UNL1        0.0344
     35 H           1.7212   -2.5963    0.7554 H       1  UNL1        0.2103
     36 H           4.6494    1.8085    1.0739 H       1  UNL1        0.0391
     37 H           3.5724    2.6738   -0.0304 H       1  UNL1        0.0391
     38 H           4.6506    1.3949   -0.6314 H       1  UNL1        0.0391
     39 H          -0.6499    3.2612   -1.9407 H       1  UNL1        0.0622
     40 H          -2.9504    3.2330   -1.0414 H       1  UNL1        0.0655
     41 H          -4.0557    0.6337    1.1700 H       1  UNL1        0.2923
@<TRIPOS>BOND
     1     1     9    1
     2     1    18    1
     3     2     7    1
     4     2    35    1
     5     3    17    2
     6     4    21    1
     7     4    41    1
     8     5     8    1
     9     5    14    1
    10     5    19    1
    11     6     7    1
    12     6     9    1
    13     6    10    1
    14     6    11    1
    15     7     8    1
    16     7    12    1
    17     8    13    1
    18     8    23    1
    19     9    17    1
    20     9    24    1
    21    10    14    1
    22    10    25    1
    23    10    26    1
    24    11    15   ar
    25    11    18   ar
    26    12    16    1
    27    12    27    1
    28    12    28    1
    29    13    15    1
    30    13    29    1
    31    13    30    1
    32    14    31    1
    33    14    32    1
    34    15    20   ar
    35    16    17    1
    36    16    33    1
    37    16    34    1
    38    18    21   ar
    39    19    36    1
    40    19    37    1
    41    19    38    1
    42    20    22   ar
    43    20    39    1
    44    21    22   ar
    45    22    40    1
@<TRIPOS>MOLECULE
139025660
 45 49 0 0 0
SMALL
GASTEIGER

@<TRIPOS>ATOM
      1 O           1.6540    1.2779    1.1835 O.3     1  UNL1       -0.4764
      2 O          -2.7685    1.6092    0.1481 O.3     1  UNL1       -0.3859
      3 O          -1.5791   -2.9755   -1.1942 O.3     1  UNL1       -0.3855
      4 O           1.5781    3.3151   -0.5991 O.2     1  UNL1       -0.2934
      5 O           4.0270   -0.3328    0.6328 O.3     1  UNL1       -0.4914
      6 N          -2.8285   -1.2989    0.6000 N.3     1  UNL1       -0.2972
      7 C          -0.6065    0.6306    0.6266 C.3     1  UNL1        0.0748
      8 C          -1.7380    0.7776   -0.3983 C.3     1  UNL1        0.0981
      9 C          -2.2916   -0.6691   -0.6383 C.3     1  UNL1        0.0702
     10 C           0.3394    1.8226    0.8417 C.3     1  UNL1        0.1701
     11 C          -1.1848    0.0874    1.9547 C.3     1  UNL1       -0.0238
     12 C           0.4206   -0.3222    0.1138 C.ar    1  UNL1        0.0166
     13 C          -1.2612    1.4987   -1.6747 C.3     1  UNL1       -0.0146
     14 C          -1.1933   -1.6064   -1.2754 C.3     1  UNL1        0.0987
     15 C          -1.9287   -1.2446    1.7586 C.3     1  UNL1        0.0001
     16 C           0.1929   -1.4144   -0.7063 C.ar    1  UNL1       -0.0099
     17 C          -0.6477    2.8571   -1.3356 C.3     1  UNL1        0.0123
     18 C           0.5297    2.6993   -0.4000 C.2     1  UNL1        0.1745
     19 C           1.6786    0.0689    0.5268 C.ar    1  UNL1        0.1672
     20 C          -4.1821   -0.8766    0.9445 C.3     1  UNL1       -0.0123
     21 C           1.3068   -2.1867   -1.0397 C.ar    1  UNL1       -0.0521
     22 C           2.7853   -0.6901    0.2243 C.ar    1  UNL1        0.1618
     23 C           2.5878   -1.8363   -0.5594 C.ar    1  UNL1       -0.0159
     24 C           5.1098   -1.1908    0.2654 C.3     1  UNL1        0.0790
     25 H          -3.1185   -0.6281   -1.3604 H       1  UNL1        0.0520
     26 H           0.0019    2.4725    1.6570 H       1  UNL1        0.0824
     27 H          -1.8705    0.8257    2.3893 H       1  UNL1        0.0288
     28 H          -0.3922   -0.0652    2.6992 H       1  UNL1        0.0288
     29 H          -2.1117    1.6628   -2.3480 H       1  UNL1        0.0298
     30 H          -0.5260    0.9069   -2.2297 H       1  UNL1        0.0298
     31 H          -1.1313   -1.3642   -2.3443 H       1  UNL1        0.0660
     32 H          -1.1919   -2.0503    1.6527 H       1  UNL1        0.0427
     33 H          -2.4654   -1.4963    2.6827 H       1  UNL1        0.0427
     34 H          -1.3748    3.5276   -0.8660 H       1  UNL1        0.0344
     35 H          -0.2996    3.3362   -2.2574 H       1  UNL1        0.0344
     36 H          -3.5042    1.6271   -0.4876 H       1  UNL1        0.2103
     37 H          -4.8437   -0.9139    0.0722 H       1  UNL1        0.0391
     38 H          -4.6110   -1.5668    1.6803 H       1  UNL1        0.0391
     39 H          -4.2272    0.1279    1.3740 H       1  UNL1        0.0391
     40 H           1.2019   -3.0522   -1.6886 H       1  UNL1        0.0622
     41 H          -2.4781   -3.0465   -1.5579 H       1  UNL1        0.2103
     42 H           3.3990   -2.4913   -0.8630 H       1  UNL1        0.0655
     43 H           6.0224   -0.7611    0.6909 H       1  UNL1        0.0660
     44 H           4.9920   -2.1909    0.6960 H       1  UNL1        0.0660
     45 H           5.2433   -1.2219   -0.8211 H       1  UNL1        0.0660
@<TRIPOS>BOND
     1     1    10    1
     2     1    19    1
     3     2     8    1
     4     2    36    1
     5     3    14    1
     6     3    41    1
     7     4    18    2
     8     5    22    1
     9     5    24    1
    10     6     9    1
    11     6    15    1
    12     6    20    1
    13     7     8    1
    14     7    10    1
    15     7    11    1
    16     7    12    1
    17     8     9    1
    18     8    13    1
    19     9    14    1
    20     9    25    1
    21    10    18    1
    22    10    26    1
    23    11    15    1
    24    11    27    1
    25    11    28    1
    26    12    16   ar
    27    12    19   ar
    28    13    17    1
    29    13    29    1
    30    13    30    1
    31    14    16    1
    32    14    31    1
    33    15    32    1
    34    15    33    1
    35    16    21   ar
    36    17    18    1
    37    17    34    1
    38    17    35    1
    39    19    22   ar
    40    20    37    1
    41    20    38    1
    42    20    39    1
    43    21    23   ar
    44    21    40    1
    45    22    23   ar
    46    23    42    1
    47    24    43    1
    48    24    44    1
    49    24    45    1
@<TRIPOS>MOLECULE
46829687
 45 49 0 0 0
SMALL
GASTEIGER

@<TRIPOS>ATOM
      1 O           1.6048    0.9976    1.3861 O.3     1  UNL1       -0.4764
      2 O          -2.8970    1.3227    0.5030 O.3     1  UNL1       -0.3834
      3 O          -0.5398    1.1597   -2.2993 O.3     1  UNL1       -0.3884
      4 O           1.4560    3.2773   -0.0435 O.2     1  UNL1       -0.2933
      5 O           3.9936   -0.4618    0.5560 O.3     1  UNL1       -0.4914
      6 N          -2.9374   -1.3845    0.5151 N.3     1  UNL1       -0.2992
      7 C          -0.6559    0.3939    0.7726 C.3     1  UNL1        0.0770
      8 C          -1.8109    0.6844   -0.2023 C.3     1  UNL1        0.1213
      9 C          -2.3338   -0.7215   -0.6739 C.3     1  UNL1        0.0463
     10 C           0.2704    1.5559    1.1650 C.3     1  UNL1        0.1703
     11 C          -1.1981   -0.3698    2.0071 C.3     1  UNL1       -0.0238
     12 C           0.3777   -0.4486    0.1111 C.ar    1  UNL1        0.0142
     13 C          -1.4344    1.6788   -1.3268 C.3     1  UNL1        0.0931
     14 C          -1.2409   -1.5954   -1.3869 C.3     1  UNL1       -0.0088
     15 C          -1.9985   -1.6265    1.6153 C.3     1  UNL1        0.0000
     16 C           0.1526   -1.4231   -0.8422 C.ar    1  UNL1       -0.0382
     17 C          -0.8010    2.9530   -0.7581 C.3     1  UNL1        0.0384
     18 C           0.4132    2.6338    0.0882 C.2     1  UNL1        0.1770
     19 C           1.6369   -0.0957    0.5525 C.ar    1  UNL1        0.1671
     20 C          -3.7140   -2.5770    0.1964 C.3     1  UNL1       -0.0124
     21 C           1.2690   -2.1222   -1.3011 C.ar    1  UNL1       -0.0546
     22 C           2.7498   -0.7817    0.1236 C.ar    1  UNL1        0.1618
     23 C           2.5549   -1.8126   -0.8073 C.ar    1  UNL1       -0.0160
     24 C           5.0829   -1.2368    0.0493 C.3     1  UNL1        0.0790
     25 H          -3.1528   -0.5528   -1.3862 H       1  UNL1        0.0495
     26 H          -0.0611    2.0517    2.0844 H       1  UNL1        0.0824
     27 H          -0.3859   -0.6690    2.6827 H       1  UNL1        0.0288
     28 H          -1.8462    0.2977    2.5902 H       1  UNL1        0.0288
     29 H          -2.3469    1.9668   -1.8641 H       1  UNL1        0.0627
     30 H          -1.2209   -1.3065   -2.4456 H       1  UNL1        0.0329
     31 H          -1.5054   -2.6573   -1.3732 H       1  UNL1        0.0329
     32 H          -1.3075   -2.4411    1.3652 H       1  UNL1        0.0427
     33 H          -2.5518   -1.9583    2.5029 H       1  UNL1        0.0427
     34 H          -1.5102    3.5050   -0.1323 H       1  UNL1        0.0369
     35 H          -0.4804    3.6129   -1.5726 H       1  UNL1        0.0369
     36 H          -3.6563    1.3737   -0.1023 H       1  UNL1        0.2104
     37 H          -4.4300   -2.3744   -0.6075 H       1  UNL1        0.0391
     38 H          -4.3047   -2.8855    1.0664 H       1  UNL1        0.0391
     39 H          -3.0906   -3.4264   -0.0996 H       1  UNL1        0.0391
     40 H           1.1589   -2.8988   -2.0533 H       1  UNL1        0.0622
     41 H          -0.4250    1.8334   -2.9909 H       1  UNL1        0.2099
     42 H           3.3699   -2.4040   -1.2137 H       1  UNL1        0.0655
     43 H           4.9930   -2.2896    0.3373 H       1  UNL1        0.0660
     44 H           5.1916   -1.1124   -1.0333 H       1  UNL1        0.0660
     45 H           5.9972   -0.8520    0.5123 H       1  UNL1        0.0660
@<TRIPOS>BOND
     1     1    10    1
     2     1    19    1
     3     2     8    1
     4     2    36    1
     5     3    13    1
     6     3    41    1
     7     4    18    2
     8     5    22    1
     9     5    24    1
    10     6     9    1
    11     6    15    1
    12     6    20    1
    13     7     8    1
    14     7    10    1
    15     7    11    1
    16     7    12    1
    17     8     9    1
    18     8    13    1
    19     9    14    1
    20     9    25    1
    21    10    18    1
    22    10    26    1
    23    11    15    1
    24    11    27    1
    25    11    28    1
    26    12    16   ar
    27    12    19   ar
    28    13    17    1
    29    13    29    1
    30    14    16    1
    31    14    30    1
    32    14    31    1
    33    15    32    1
    34    15    33    1
    35    16    21   ar
    36    17    18    1
    37    17    34    1
    38    17    35    1
    39    19    22   ar
    40    20    37    1
    41    20    38    1
    42    20    39    1
    43    21    23   ar
    44    21    40    1
    45    22    23   ar
    46    23    42    1
    47    24    43    1
    48    24    44    1
    49    24    45    1
@<TRIPOS>MOLECULE
5284569
 43 47 0 0 0
SMALL
GASTEIGER

@<TRIPOS>ATOM
      1 O          -1.5604   -1.0395    1.2439 O.3     1  UNL1       -0.4765
      2 O          -1.6024   -3.2458   -0.3367 O.2     1  UNL1       -0.2934
      3 O          -3.7900    0.6985    0.5141 O.3     1  UNL1       -0.4914
      4 N           3.2122    0.9116    0.4873 N.3     1  UNL1       -0.3018
      5 C           0.7515   -0.6227    0.6656 C.3     1  UNL1        0.0488
      6 C           1.8678   -0.9528   -0.3316 C.3     1  UNL1       -0.0111
      7 C           2.5371    0.3989   -0.7298 C.3     1  UNL1        0.0179
      8 C          -0.2870   -1.7090    0.9857 C.3     1  UNL1        0.1677
      9 C           1.3921   -0.0145    1.9318 C.3     1  UNL1       -0.0263
     10 C          -0.1913    0.3568    0.0618 C.ar    1  UNL1        0.0116
     11 C           1.3694   -1.7866   -1.5186 C.3     1  UNL1       -0.0410
     12 C           1.5290    1.3996   -1.3973 C.3     1  UNL1       -0.0113
     13 C           2.3083    1.1802    1.6107 C.3     1  UNL1       -0.0002
     14 C           0.1294    1.3493   -0.8438 C.ar    1  UNL1       -0.0383
     15 C           0.6811   -3.0513   -1.0178 C.3     1  UNL1        0.0099
     16 C          -0.5128   -2.7002   -0.1588 C.2     1  UNL1        0.1744
     17 C          -1.4805    0.1041    0.4843 C.ar    1  UNL1        0.1670
     18 C           4.0952    2.0442    0.2298 C.3     1  UNL1       -0.0125
     19 C          -0.9113    2.1801   -1.2593 C.ar    1  UNL1       -0.0546
     20 C          -2.5193    0.9195    0.0982 C.ar    1  UNL1        0.1618
     21 C          -2.2217    1.9755   -0.7753 C.ar    1  UNL1       -0.0160
     22 C          -4.7965    1.6041    0.0557 C.3     1  UNL1        0.0790
     23 H           2.6209   -1.5750    0.1769 H       1  UNL1        0.0326
     24 H           3.3220    0.1782   -1.4657 H       1  UNL1        0.0469
     25 H          -0.0093   -2.2908    1.8721 H       1  UNL1        0.0823
     26 H           1.9859   -0.7895    2.4352 H       1  UNL1        0.0287
     27 H           0.6299    0.3090    2.6525 H       1  UNL1        0.0287
     28 H           2.2188   -2.0625   -2.1545 H       1  UNL1        0.0273
     29 H           0.6757   -1.2175   -2.1475 H       1  UNL1        0.0273
     30 H           1.4631    1.1365   -2.4616 H       1  UNL1        0.0329
     31 H           1.9025    2.4277   -1.3588 H       1  UNL1        0.0329
     32 H           1.6996    2.0722    1.4175 H       1  UNL1        0.0427
     33 H           2.8969    1.4000    2.5103 H       1  UNL1        0.0427
     34 H           1.3631   -3.6712   -0.4263 H       1  UNL1        0.0343
     35 H           0.3380   -3.6451   -1.8719 H       1  UNL1        0.0343
     36 H           4.7162    2.2462    1.1099 H       1  UNL1        0.0391
     37 H           3.5507    2.9625   -0.0115 H       1  UNL1        0.0391
     38 H           4.7850    1.8230   -0.5919 H       1  UNL1        0.0391
     39 H          -0.7245    2.9786   -1.9725 H       1  UNL1        0.0622
     40 H          -2.9735    2.6659   -1.1459 H       1  UNL1        0.0655
     41 H          -5.7454    1.2856    0.4991 H       1  UNL1        0.0660
     42 H          -4.9144    1.5524   -1.0319 H       1  UNL1        0.0660
     43 H          -4.6042    2.6250    0.4022 H       1  UNL1        0.0660
@<TRIPOS>BOND
     1     1     8    1
     2     1    17    1
     3     2    16    2
     4     3    20    1
     5     3    22    1
     6     4     7    1
     7     4    13    1
     8     4    18    1
     9     5     6    1
    10     5     8    1
    11     5     9    1
    12     5    10    1
    13     6     7    1
    14     6    11    1
    15     6    23    1
    16     7    12    1
    17     7    24    1
    18     8    16    1
    19     8    25    1
    20     9    13    1
    21     9    26    1
    22     9    27    1
    23    10    14   ar
    24    10    17   ar
    25    11    15    1
    26    11    28    1
    27    11    29    1
    28    12    14    1
    29    12    30    1
    30    12    31    1
    31    13    32    1
    32    13    33    1
    33    14    19   ar
    34    15    16    1
    35    15    34    1
    36    15    35    1
    37    17    20   ar
    38    18    36    1
    39    18    37    1
    40    18    38    1
    41    19    21   ar
    42    19    39    1
    43    20    21   ar
    44    21    40    1
    45    22    41    1
    46    22    42    1
    47    22    43    1
@<TRIPOS>MOLECULE
21144070
 45 49 0 0 0
SMALL
GASTEIGER

@<TRIPOS>ATOM
      1 O           1.6691    1.0345    1.3487 O.3     1  UNL1       -0.4764
      2 O          -2.8360    1.1364    0.6503 O.3     1  UNL1       -0.3834
      3 O          -2.5719    1.7691   -2.0639 O.3     1  UNL1       -0.3884
      4 O           1.2967    3.3723    0.0302 O.2     1  UNL1       -0.2933
      5 O           4.1079   -0.2386    0.3674 O.3     1  UNL1       -0.4914
      6 N          -2.7360   -1.6253    0.5948 N.3     1  UNL1       -0.2992
      7 C          -0.5731    0.3008    0.8133 C.3     1  UNL1        0.0770
      8 C          -1.7771    0.5338   -0.1137 C.3     1  UNL1        0.1213
      9 C          -2.2430   -0.8840   -0.5953 C.3     1  UNL1        0.0463
     10 C           0.2933    1.5116    1.2003 C.3     1  UNL1        0.1703
     11 C          -1.0142   -0.5264    2.0441 C.3     1  UNL1       -0.0238
     12 C           0.4829   -0.4511    0.0801 C.ar    1  UNL1        0.0142
     13 C          -1.4298    1.5239   -1.2466 C.3     1  UNL1        0.0931
     14 C          -1.1248   -1.6295   -1.4075 C.3     1  UNL1       -0.0088
     15 C          -1.7332   -1.8280    1.6449 C.3     1  UNL1        0.0000
     16 C           0.2773   -1.3981   -0.9055 C.ar    1  UNL1       -0.0382
     17 C          -0.9236    2.8483   -0.6758 C.3     1  UNL1        0.0384
     18 C           0.3218    2.6290    0.1523 C.2     1  UNL1        0.1770
     19 C           1.7349   -0.0296    0.4796 C.ar    1  UNL1        0.1671
     20 C          -3.4242   -2.8688    0.2652 C.3     1  UNL1       -0.0124
     21 C           1.4145   -2.0040   -1.4391 C.ar    1  UNL1       -0.0546
     22 C           2.8690   -0.6247   -0.0231 C.ar    1  UNL1        0.1618
     23 C           2.6988   -1.6308   -0.9857 C.ar    1  UNL1       -0.0160
     24 C           5.2208   -0.9209   -0.2152 C.3     1  UNL1        0.0790
     25 H          -3.1105   -0.7508   -1.2554 H       1  UNL1        0.0495
     26 H          -0.0296    1.9585    2.1474 H       1  UNL1        0.0824
     27 H          -1.6873    0.0773    2.6668 H       1  UNL1        0.0288
     28 H          -0.1584   -0.7820    2.6828 H       1  UNL1        0.0288
     29 H          -0.6603    1.1067   -1.9052 H       1  UNL1        0.0627
     30 H          -1.1640   -1.2558   -2.4395 H       1  UNL1        0.0329
     31 H          -1.3213   -2.7045   -1.4639 H       1  UNL1        0.0329
     32 H          -0.9946   -2.5789    1.3382 H       1  UNL1        0.0427
     33 H          -2.2196   -2.2281    2.5434 H       1  UNL1        0.0427
     34 H          -1.6805    3.3461   -0.0600 H       1  UNL1        0.0369
     35 H          -0.6876    3.5366   -1.4959 H       1  UNL1        0.0369
     36 H          -3.6030    1.2329    0.0601 H       1  UNL1        0.2104
     37 H          -4.1922   -2.7007   -0.4976 H       1  UNL1        0.0391
     38 H          -3.9446   -3.2574    1.1480 H       1  UNL1        0.0391
     39 H          -2.7451   -3.6495   -0.0915 H       1  UNL1        0.0391
     40 H           1.3215   -2.7543   -2.2197 H       1  UNL1        0.0622
     41 H          -2.3051    2.3894   -2.7636 H       1  UNL1        0.2099
     42 H           3.5312   -2.1513   -1.4500 H       1  UNL1        0.0655
     43 H           6.1284   -0.4937    0.2233 H       1  UNL1        0.0660
     44 H           5.2725   -0.7502   -1.2957 H       1  UNL1        0.0660
     45 H           5.2120   -1.9872    0.0347 H       1  UNL1        0.0660
@<TRIPOS>BOND
     1     1    10    1
     2     1    19    1
     3     2     8    1
     4     2    36    1
     5     3    13    1
     6     3    41    1
     7     4    18    2
     8     5    22    1
     9     5    24    1
    10     6     9    1
    11     6    15    1
    12     6    20    1
    13     7     8    1
    14     7    10    1
    15     7    11    1
    16     7    12    1
    17     8     9    1
    18     8    13    1
    19     9    14    1
    20     9    25    1
    21    10    18    1
    22    10    26    1
    23    11    15    1
    24    11    27    1
    25    11    28    1
    26    12    16   ar
    27    12    19   ar
    28    13    17    1
    29    13    29    1
    30    14    16    1
    31    14    30    1
    32    14    31    1
    33    15    32    1
    34    15    33    1
    35    16    21   ar
    36    17    18    1
    37    17    34    1
    38    17    35    1
    39    19    22   ar
    40    20    37    1
    41    20    38    1
    42    20    39    1
    43    21    23   ar
    44    21    40    1
    45    22    23   ar
    46    23    42    1
    47    24    43    1
    48    24    44    1
    49    24    45    1
@<TRIPOS>MOLECULE
21677760
 45 49 0 0 0
SMALL
GASTEIGER

@<TRIPOS>ATOM
      1 O          -1.5753    1.0969   -1.2485 O.3     1  UNL1       -0.4764
      2 O           2.8741    1.4875   -0.2565 O.3     1  UNL1       -0.3819
      3 O          -1.4954    3.2963    0.3218 O.2     1  UNL1       -0.2934
      4 O          -3.9427   -0.4602   -0.5422 O.3     1  UNL1       -0.4914
      5 N           2.9785   -1.2669   -0.4761 N.4     1  UNL1        0.2375
      6 C           0.6913    0.5044   -0.6407 C.3     1  UNL1        0.0820
      7 C           1.8155    0.7528    0.3770 C.3     1  UNL1        0.1225
      8 C           2.3598   -0.6448    0.7942 C.3     1  UNL1        0.0133
      9 C           1.2568   -0.1623   -1.9186 C.3     1  UNL1        0.0039
     10 C          -0.2584    1.6703   -0.9682 C.3     1  UNL1        0.1704
     11 C          -0.3341   -0.3966   -0.0437 C.ar    1  UNL1        0.0146
     12 C           1.3431    1.6090    1.5652 C.3     1  UNL1       -0.0109
     13 C           2.0244   -1.4557   -1.6311 C.3     1  UNL1       -0.0307
     14 C           1.2861   -1.5847    1.4234 C.3     1  UNL1        0.0187
     15 C          -0.1014   -1.4147    0.8613 C.ar    1  UNL1       -0.0343
     16 C           0.7380    2.9250    1.0818 C.3     1  UNL1        0.0124
     17 C          -0.4452    2.6684    0.1777 C.2     1  UNL1        0.1745
     18 C          -1.5948   -0.0457   -0.4830 C.ar    1  UNL1        0.1671
     19 C           3.8026   -2.4992   -0.2152 C.3     1  UNL1       -0.0427
     20 C          -1.2087   -2.1621    1.2630 C.ar    1  UNL1       -0.0544
     21 C          -2.6984   -0.7781   -0.1102 C.ar    1  UNL1        0.1618
     22 C          -2.4938   -1.8545    0.7653 C.ar    1  UNL1       -0.0160
     23 C          -5.0218   -1.2851   -0.0967 C.3     1  UNL1        0.0790
     24 H           3.2063   -0.5301    1.4823 H       1  UNL1        0.0883
     25 H           1.9250    0.5423   -2.4306 H       1  UNL1        0.0328
     26 H           0.4579   -0.3893   -2.6369 H       1  UNL1        0.0328
     27 H           0.0753    2.2357   -1.8458 H       1  UNL1        0.0824
     28 H           3.6596   -0.5662   -0.7995 H       1  UNL1        0.2034
     29 H           2.1936    1.8405    2.2182 H       1  UNL1        0.0299
     30 H           0.6067    1.0769    2.1776 H       1  UNL1        0.0299
     31 H           1.3571   -2.2873   -1.3831 H       1  UNL1        0.0815
     32 H           2.6226   -1.7419   -2.5031 H       1  UNL1        0.0815
     33 H           1.2256   -1.3396    2.4920 H       1  UNL1        0.0369
     34 H           1.5808   -2.6360    1.3601 H       1  UNL1        0.0369
     35 H           1.4663    3.5326    0.5351 H       1  UNL1        0.0344
     36 H           0.3987    3.5069    1.9459 H       1  UNL1        0.0344
     37 H           3.6012    1.5741    0.3834 H       1  UNL1        0.2105
     38 H           3.1380   -3.3381    0.0006 H       1  UNL1        0.0778
     39 H           4.3903   -2.7020   -1.1148 H       1  UNL1        0.0778
     40 H           4.4707   -2.2943    0.6249 H       1  UNL1        0.0778
     41 H          -1.0928   -2.9754    1.9744 H       1  UNL1        0.0622
     42 H          -3.3013   -2.4848    1.1257 H       1  UNL1        0.0655
     43 H          -5.9377   -0.8942   -0.5514 H       1  UNL1        0.0660
     44 H          -5.1485   -1.2242    0.9893 H       1  UNL1        0.0660
     45 H          -4.9048   -2.3180   -0.4417 H       1  UNL1        0.0660
@<TRIPOS>UNITY_ATOM_ATTR
5 1
charge 1
@<TRIPOS>BOND
     1     1    10    1
     2     1    18    1
     3     2     7    1
     4     2    37    1
     5     3    17    2
     6     4    21    1
     7     4    23    1
     8     5     8    1
     9     5    13    1
    10     5    19    1
    11     5    28    1
    12     6     7    1
    13     6     9    1
    14     6    10    1
    15     6    11    1
    16     7     8    1
    17     7    12    1
    18     8    14    1
    19     8    24    1
    20     9    13    1
    21     9    25    1
    22     9    26    1
    23    10    17    1
    24    10    27    1
    25    11    15   ar
    26    11    18   ar
    27    12    16    1
    28    12    29    1
    29    12    30    1
    30    13    31    1
    31    13    32    1
    32    14    15    1
    33    14    33    1
    34    14    34    1
    35    15    20   ar
    36    16    17    1
    37    16    35    1
    38    16    36    1
    39    18    21   ar
    40    19    38    1
    41    19    39    1
    42    19    40    1
    43    20    22   ar
    44    20    41    1
    45    21    22   ar
    46    22    42    1
    47    23    43    1
    48    23    44    1
    49    23    45    1
@<TRIPOS>MOLECULE
5360241
 46 50 0 0 0
SMALL
GASTEIGER

@<TRIPOS>ATOM
      1 O          -1.6683    0.8418   -1.3706 O.3     1  UNL1       -0.4813
      2 O           2.7302    1.7202   -0.3472 O.3     1  UNL1       -0.3860
      3 O          -1.7180    2.1639    0.9968 O.3     1  UNL1       -0.3881
      4 O          -3.8592   -0.9767   -0.7006 O.3     1  UNL1       -0.4914
      5 N           3.0683   -1.0260   -0.4042 N.3     1  UNL1       -0.2993
      6 C           0.6279    0.5242   -0.6792 C.3     1  UNL1        0.0701
      7 C           1.7352    0.9135    0.3106 C.3     1  UNL1        0.0951
      8 C           2.3991   -0.4244    0.7803 C.3     1  UNL1        0.0438
      9 C          -0.4371    1.5802   -1.0417 C.3     1  UNL1        0.1384
     10 C           1.2628   -0.1524   -1.9206 C.3     1  UNL1       -0.0242
     11 C          -0.3092   -0.4550   -0.0634 C.ar    1  UNL1        0.0138
     12 C           1.2121    1.8049    1.4459 C.3     1  UNL1       -0.0191
     13 C          -0.7450    2.6321    0.0599 C.3     1  UNL1        0.0930
     14 C           1.3826   -1.3753    1.5045 C.3     1  UNL1       -0.0089
     15 C           0.4866    3.0333    0.8705 C.3     1  UNL1       -0.0207
     16 C           2.1773   -1.3317   -1.5298 C.3     1  UNL1        0.0000
     17 C           0.0051   -1.3965    0.8968 C.ar    1  UNL1       -0.0382
     18 C          -1.5814   -0.2808   -0.5735 C.ar    1  UNL1        0.1666
     19 C           3.9268   -2.1594   -0.0784 C.3     1  UNL1       -0.0124
     20 C          -1.0231   -2.2509    1.2937 C.ar    1  UNL1       -0.0546
     21 C          -2.6053   -1.1241   -0.2090 C.ar    1  UNL1        0.1618
     22 C          -2.3124   -2.1252    0.7293 C.ar    1  UNL1       -0.0160
     23 C          -4.7550   -0.1357    0.0301 C.3     1  UNL1        0.0790
     24 H           3.1961   -0.1709    1.4924 H       1  UNL1        0.0494
     25 H          -0.1192    2.1196   -1.9431 H       1  UNL1        0.0769
     26 H           1.8523    0.5866   -2.4785 H       1  UNL1        0.0288
     27 H           0.4991   -0.5182   -2.6195 H       1  UNL1        0.0288
     28 H           2.0536    2.1598    2.0541 H       1  UNL1        0.0294
     29 H           0.5409    1.2616    2.1193 H       1  UNL1        0.0294
     30 H          -1.1805    3.5226   -0.4080 H       1  UNL1        0.0630
     31 H           1.2755   -1.0215    2.5385 H       1  UNL1        0.0329
     32 H           1.7717   -2.3962    1.5696 H       1  UNL1        0.0329
     33 H           0.1783    3.6668    1.7119 H       1  UNL1        0.0292
     34 H           1.1626    3.6368    0.2556 H       1  UNL1        0.0292
     35 H           1.5641   -2.2144   -1.3092 H       1  UNL1        0.0427
     36 H           2.7782   -1.5916   -2.4104 H       1  UNL1        0.0427
     37 H           2.2840    2.3244   -0.9633 H       1  UNL1        0.2103
     38 H           4.5544   -2.4174   -0.9390 H       1  UNL1        0.0391
     39 H           3.3615   -3.0538    0.2016 H       1  UNL1        0.0391
     40 H           4.6109   -1.9099    0.7399 H       1  UNL1        0.0391
     41 H          -0.8446   -3.0118    2.0488 H       1  UNL1        0.0622
     42 H          -2.5518    2.0499    0.5106 H       1  UNL1        0.2099
     43 H          -3.0965   -2.8049    1.0561 H       1  UNL1        0.0655
     44 H          -4.4459    0.9097   -0.0560 H       1  UNL1        0.0660
     45 H          -4.7982   -0.4325    1.0829 H       1  UNL1        0.0660
     46 H          -5.7526   -0.2414   -0.4049 H       1  UNL1        0.0660
@<TRIPOS>BOND
     1     1     9    1
     2     1    18    1
     3     2     7    1
     4     2    37    1
     5     3    13    1
     6     3    42    1
     7     4    21    1
     8     4    23    1
     9     5     8    1
    10     5    16    1
    11     5    19    1
    12     6     7    1
    13     6     9    1
    14     6    10    1
    15     6    11    1
    16     7     8    1
    17     7    12    1
    18     8    14    1
    19     8    24    1
    20     9    13    1
    21     9    25    1
    22    10    16    1
    23    10    26    1
    24    10    27    1
    25    11    17   ar
    26    11    18   ar
    27    12    15    1
    28    12    28    1
    29    12    29    1
    30    13    15    1
    31    13    30    1
    32    14    17    1
    33    14    31    1
    34    14    32    1
    35    15    33    1
    36    15    34    1
    37    16    35    1
    38    16    36    1
    39    17    20   ar
    40    18    21   ar
    41    19    38    1
    42    19    39    1
    43    19    40    1
    44    20    22   ar
    45    20    41    1
    46    21    22   ar
    47    22    43    1
    48    23    44    1
    49    23    45    1
    50    23    46    1
@<TRIPOS>MOLECULE
5324289
 44 48 0 0 0
SMALL
GASTEIGER

@<TRIPOS>ATOM
      1 O          -1.3885    1.2918   -0.7887 O.3     1  UNL1       -0.4760
      2 O          -0.3074    3.7201    0.3071 O.2     1  UNL1       -0.4956
      3 O          -3.9740    0.0376   -0.3859 O.3     1  UNL1       -0.4914
      4 N           2.9222   -1.8716   -0.4179 N.3     1  UNL1       -0.2984
      5 C           0.7655    0.1552   -0.4835 C.3     1  UNL1        0.0673
      6 C           1.7093    0.0066    0.6783 C.2     1  UNL1       -0.0375
      7 C           2.1905   -1.4317    0.7967 C.3     1  UNL1        0.0366
      8 C           0.0563    1.5209   -0.6795 C.3     1  UNL1        0.1701
      9 C           1.4641   -0.3120   -1.7782 C.3     1  UNL1       -0.0227
     10 C          -0.4158   -0.6740   -0.1335 C.ar    1  UNL1        0.0154
     11 C           0.9609   -2.3875    1.0624 C.3     1  UNL1       -0.0078
     12 C           2.1331   -1.6919   -1.6476 C.3     1  UNL1        0.0004
     13 C          -0.3698   -1.8940    0.5286 C.ar    1  UNL1       -0.0377
     14 C          -1.5887   -0.0007   -0.3818 C.ar    1  UNL1        0.1674
     15 C           0.3622    2.5185    0.4163 C.2     1  UNL1        0.1388
     16 C           1.9438    1.0131    1.5315 C.2     1  UNL1       -0.0568
     17 C           1.2525    2.2774    1.3963 C.2     1  UNL1       -0.0204
     18 C          -1.5891   -2.5195    0.7870 C.ar    1  UNL1       -0.0545
     19 C           4.2361   -1.2353   -0.5235 C.3     1  UNL1       -0.0122
     20 C          -2.8042   -0.5994   -0.1311 C.ar    1  UNL1        0.1619
     21 C          -2.7972   -1.8825    0.4362 C.ar    1  UNL1       -0.0160
     22 C           0.4194    4.6274   -0.4978 C.3     1  UNL1        0.0785
     23 C          -5.1812   -0.6683   -0.0915 C.3     1  UNL1        0.0790
     24 H           2.8637   -1.5447    1.6568 H       1  UNL1        0.0512
     25 H           0.3618    1.9650   -1.6354 H       1  UNL1        0.0828
     26 H           2.2302    0.4241   -2.0575 H       1  UNL1        0.0290
     27 H           0.7498   -0.3498   -2.6112 H       1  UNL1        0.0290
     28 H           0.8532   -2.4787    2.1522 H       1  UNL1        0.0332
     29 H           1.1627   -3.3966    0.6821 H       1  UNL1        0.0332
     30 H           1.3612   -2.4701   -1.6862 H       1  UNL1        0.0427
     31 H           2.7545   -1.8807   -2.5323 H       1  UNL1        0.0427
     32 H           2.5897    0.8816    2.3926 H       1  UNL1        0.0619
     33 H           1.4553    3.0296    2.1524 H       1  UNL1        0.0652
     34 H          -1.6184   -3.4795    1.2952 H       1  UNL1        0.0622
     35 H           4.7960   -1.6553   -1.3667 H       1  UNL1        0.0391
     36 H           4.8333   -1.4360    0.3730 H       1  UNL1        0.0391
     37 H           4.1782   -0.1505   -0.6610 H       1  UNL1        0.0391
     38 H          -3.7043   -2.4292    0.6758 H       1  UNL1        0.0655
     39 H          -0.1229    5.5778   -0.5112 H       1  UNL1        0.0660
     40 H           0.4976    4.2747   -1.5315 H       1  UNL1        0.0660
     41 H           1.4178    4.8183   -0.0884 H       1  UNL1        0.0660
     42 H          -6.0144   -0.0165   -0.3732 H       1  UNL1        0.0660
     43 H          -5.2760   -0.8677    0.9812 H       1  UNL1        0.0660
     44 H          -5.2683   -1.5807   -0.6910 H       1  UNL1        0.0660
@<TRIPOS>BOND
     1     1     8    1
     2     1    14    1
     3     2    15    1
     4     2    22    1
     5     3    20    1
     6     3    23    1
     7     4     7    1
     8     4    12    1
     9     4    19    1
    10     5     6    1
    11     5     8    1
    12     5     9    1
    13     5    10    1
    14     6     7    1
    15     6    16    2
    16     7    11    1
    17     7    24    1
    18     8    15    1
    19     8    25    1
    20     9    12    1
    21     9    26    1
    22     9    27    1
    23    10    13   ar
    24    10    14   ar
    25    11    13    1
    26    11    28    1
    27    11    29    1
    28    12    30    1
    29    12    31    1
    30    13    18   ar
    31    14    20   ar
    32    15    17    2
    33    16    17    1
    34    16    32    1
    35    17    33    1
    36    18    21   ar
    37    18    34    1
    38    19    35    1
    39    19    36    1
    40    19    37    1
    41    20    21   ar
    42    21    38    1
    43    22    39    1
    44    22    40    1
    45    22    41    1
    46    23    42    1
    47    23    43    1
    48    23    44    1
@<TRIPOS>MOLECULE
70907595
 46 50 0 0 0
SMALL
GASTEIGER

@<TRIPOS>ATOM
      1 O           1.7064   -0.7844   -1.3408 O.3     1  UNL1       -0.4846
      2 O          -2.6814   -1.7727   -0.3724 O.3     1  UNL1       -0.3860
      3 O           1.7597   -2.1085    1.0255 O.3     1  UNL1       -0.3881
      4 O           4.6025   -0.0459   -0.0840 O.3     1  UNL1       -0.3903
      5 N          -3.0864    0.9645   -0.4310 N.3     1  UNL1       -0.2993
      6 C          -0.6053   -0.5246   -0.6775 C.3     1  UNL1        0.0700
      7 C          -1.7146   -0.9426    0.2983 C.3     1  UNL1        0.0951
      8 C          -2.4171    0.3780    0.7610 C.3     1  UNL1        0.0438
      9 C           0.4899   -1.5535   -1.0279 C.3     1  UNL1        0.1383
     10 C          -1.2414    0.1378   -1.9259 C.3     1  UNL1       -0.0242
     11 C           0.2997    0.4767   -0.0492 C.ar    1  UNL1        0.0105
     12 C          -1.1836   -1.8223    1.4390 C.3     1  UNL1       -0.0191
     13 C           0.8102   -2.5990    0.0763 C.3     1  UNL1        0.0930
     14 C          -1.4335    1.3527    1.4987 C.3     1  UNL1       -0.0089
     15 C          -0.4208   -3.0316    0.8713 C.3     1  UNL1       -0.0207
     16 C          -2.1894    1.2934   -1.5452 C.3     1  UNL1        0.0000
     17 C          -0.0495    1.4089    0.9079 C.ar    1  UNL1       -0.0384
     18 C           1.5820    0.3346   -0.5438 C.ar    1  UNL1        0.1306
     19 C           2.5800    1.2029   -0.1661 C.ar    1  UNL1        0.0198
     20 C           0.9521    2.2881    1.3182 C.ar    1  UNL1       -0.0577
     21 C          -3.9764    2.0760   -0.1145 C.3     1  UNL1       -0.0124
     22 C           2.2508    2.1953    0.7694 C.ar    1  UNL1       -0.0526
     23 C           3.9663    1.0762   -0.6872 C.3     1  UNL1        0.0727
     24 H          -3.2159    0.1064    1.4645 H       1  UNL1        0.0494
     25 H           0.1958   -2.0991   -1.9337 H       1  UNL1        0.0769
     26 H          -1.8067   -0.6172   -2.4878 H       1  UNL1        0.0288
     27 H          -0.4793    0.5217   -2.6166 H       1  UNL1        0.0288
     28 H          -2.0204   -2.1983    2.0411 H       1  UNL1        0.0294
     29 H          -0.5326   -1.2631    2.1192 H       1  UNL1        0.0294
     30 H           1.2801   -3.4689   -0.3970 H       1  UNL1        0.0630
     31 H          -1.3303    1.0002    2.5335 H       1  UNL1        0.0329
     32 H          -1.8485    2.3636    1.5603 H       1  UNL1        0.0329
     33 H          -0.1200   -3.6711    1.7102 H       1  UNL1        0.0292
     34 H          -1.0799   -3.6318    0.2335 H       1  UNL1        0.0292
     35 H          -2.7859    1.5394   -2.4328 H       1  UNL1        0.0427
     36 H          -1.6011    2.1907   -1.3163 H       1  UNL1        0.0427
     37 H          -3.4286   -1.9099    0.2347 H       1  UNL1        0.2103
     38 H           0.7454    3.0431    2.0720 H       1  UNL1        0.0621
     39 H          -4.6642    1.8086    0.6950 H       1  UNL1        0.0391
     40 H          -4.5995    2.3196   -0.9826 H       1  UNL1        0.0391
     41 H          -3.4368    2.9837    0.1733 H       1  UNL1        0.0391
     42 H           1.9811   -2.8386    1.6283 H       1  UNL1        0.2099
     43 H           3.0091    2.8962    1.1122 H       1  UNL1        0.0622
     44 H           3.9568    0.9378   -1.7739 H       1  UNL1        0.0608
     45 H           4.5605    1.9703   -0.4698 H       1  UNL1        0.0608
     46 H           5.4988   -0.0993   -0.4573 H       1  UNL1        0.2098
@<TRIPOS>BOND
     1     1     9    1
     2     1    18    1
     3     2     7    1
     4     2    37    1
     5     3    13    1
     6     3    42    1
     7     4    23    1
     8     4    46    1
     9     5     8    1
    10     5    16    1
    11     5    21    1
    12     6     7    1
    13     6     9    1
    14     6    10    1
    15     6    11    1
    16     7     8    1
    17     7    12    1
    18     8    14    1
    19     8    24    1
    20     9    13    1
    21     9    25    1
    22    10    16    1
    23    10    26    1
    24    10    27    1
    25    11    17   ar
    26    11    18   ar
    27    12    15    1
    28    12    28    1
    29    12    29    1
    30    13    15    1
    31    13    30    1
    32    14    17    1
    33    14    31    1
    34    14    32    1
    35    15    33    1
    36    15    34    1
    37    16    35    1
    38    16    36    1
    39    17    20   ar
    40    18    19   ar
    41    19    22   ar
    42    19    23    1
    43    20    22   ar
    44    20    38    1
    45    21    39    1
    46    21    40    1
    47    21    41    1
    48    22    43    1
    49    23    44    1
    50    23    45    1
@<TRIPOS>MOLECULE
150664178
 47 51 0 0 0
SMALL
GASTEIGER

@<TRIPOS>ATOM
      1 O           1.5662   -0.7760   -1.4744 O.3     1  UNL1       -0.4764
      2 O          -2.9003   -1.1453   -0.5898 O.3     1  UNL1       -0.3860
      3 O           1.4123   -3.1569   -0.2430 O.2     1  UNL1       -0.2932
      4 O           3.9869    0.5517   -0.5164 O.3     1  UNL1       -0.4914
      5 N          -2.9106    1.6044   -0.3499 N.3     1  UNL1       -0.2993
      6 C          -0.6781   -0.1990   -0.7899 C.3     1  UNL1        0.0746
      7 C          -1.8296   -0.5495    0.1617 C.3     1  UNL1        0.0959
      8 C          -2.3326    0.8070    0.7634 C.3     1  UNL1        0.0438
      9 C           0.2266   -1.3370   -1.2864 C.3     1  UNL1        0.1703
     10 C          -1.2088    0.6856   -1.9431 C.3     1  UNL1       -0.0238
     11 C           0.3737    0.5544   -0.0511 C.ar    1  UNL1        0.0141
     12 C          -1.4121   -1.5937    1.2135 C.3     1  UNL1       -0.0121
     13 C          -1.2160    1.5478    1.5815 C.3     1  UNL1       -0.0089
     14 C          -0.8522   -2.8594    0.5426 C.3     1  UNL1        0.0211
     15 C          -1.9664    1.9228   -1.4257 C.3     1  UNL1        0.0000
     16 C           0.1704    1.4205    1.0063 C.ar    1  UNL1       -0.0382
     17 C           0.3700   -2.5017   -0.2984 C.2     1  UNL1        0.1773
     18 C           1.6240    0.2284   -0.5360 C.ar    1  UNL1        0.1671
     19 C          -3.6366    2.7891    0.0939 C.3     1  UNL1       -0.0124
     20 C          -0.5106   -3.9077    1.6002 C.3     1  UNL1       -0.0555
     21 C           1.3014    2.0466    1.5298 C.ar    1  UNL1       -0.0546
     22 C           2.7511    0.8456   -0.0447 C.ar    1  UNL1        0.1618
     23 C           2.5790    1.7726    0.9940 C.ar    1  UNL1       -0.0160
     24 C           5.0923    1.2498    0.0622 C.3     1  UNL1        0.0790
     25 H          -3.1620    0.5834    1.4482 H       1  UNL1        0.0494
     26 H          -0.1201   -1.7524   -2.2394 H       1  UNL1        0.0824
     27 H          -1.8816    0.0932   -2.5770 H       1  UNL1        0.0288
     28 H          -0.3945    1.0230   -2.5978 H       1  UNL1        0.0288
     29 H          -2.2883   -1.8717    1.8138 H       1  UNL1        0.0300
     30 H          -0.6678   -1.1888    1.9085 H       1  UNL1        0.0300
     31 H          -1.1923    1.1024    2.5850 H       1  UNL1        0.0329
     32 H          -1.4592    2.6054    1.7223 H       1  UNL1        0.0329
     33 H          -1.5940   -3.2936   -0.1384 H       1  UNL1        0.0377
     34 H          -1.2485    2.6858   -1.1000 H       1  UNL1        0.0427
     35 H          -2.5104    2.3582   -2.2734 H       1  UNL1        0.0427
     36 H          -3.6526   -1.2696    0.0137 H       1  UNL1        0.2103
     37 H          -4.3603    2.5345    0.8759 H       1  UNL1        0.0391
     38 H          -2.9768    3.5754    0.4737 H       1  UNL1        0.0391
     39 H          -4.2139    3.2110   -0.7366 H       1  UNL1        0.0391
     40 H           0.2656   -3.5464    2.2839 H       1  UNL1        0.0236
     41 H          -0.1390   -4.8266    1.1337 H       1  UNL1        0.0236
     42 H          -1.3943   -4.1671    2.1923 H       1  UNL1        0.0236
     43 H           1.2097    2.7366    2.3644 H       1  UNL1        0.0622
     44 H           3.4065    2.3025    1.4562 H       1  UNL1        0.0655
     45 H           5.9972    0.9015   -0.4460 H       1  UNL1        0.0660
     46 H           5.0191    2.3287   -0.1109 H       1  UNL1        0.0660
     47 H           5.2048    1.0084    1.1244 H       1  UNL1        0.0660
@<TRIPOS>BOND
     1     1     9    1
     2     1    18    1
     3     2     7    1
     4     2    36    1
     5     3    17    2
     6     4    22    1
     7     4    24    1
     8     5     8    1
     9     5    15    1
    10     5    19    1
    11     6     7    1
    12     6     9    1
    13     6    10    1
    14     6    11    1
    15     7     8    1
    16     7    12    1
    17     8    13    1
    18     8    25    1
    19     9    17    1
    20     9    26    1
    21    10    15    1
    22    10    27    1
    23    10    28    1
    24    11    16   ar
    25    11    18   ar
    26    12    14    1
    27    12    29    1
    28    12    30    1
    29    13    16    1
    30    13    31    1
    31    13    32    1
    32    14    17    1
    33    14    20    1
    34    14    33    1
    35    15    34    1
    36    15    35    1
    37    16    21   ar
    38    18    22   ar
    39    19    37    1
    40    19    38    1
    41    19    39    1
    42    20    40    1
    43    20    41    1
    44    20    42    1
    45    21    23   ar
    46    21    43    1
    47    22    23   ar
    48    23    44    1
    49    24    45    1
    50    24    46    1
    51    24    47    1
@<TRIPOS>MOLECULE
5489120
 41 45 0 0 0
SMALL
GASTEIGER

@<TRIPOS>ATOM
      1 O           1.3769    0.9825    1.2705 O.3     1  UNL1       -0.4764
      2 O          -3.0675    1.2150    0.2262 O.3     1  UNL1       -0.3860
      3 O           1.2388    3.1442   -0.3489 O.2     1  UNL1       -0.2934
      4 O           3.8014   -0.5121    0.6177 O.3     1  UNL1       -0.4914
      5 N          -3.0922   -1.5725    0.4675 N.3     1  UNL1       -0.3103
      6 C          -0.8621    0.3038    0.6565 C.3     1  UNL1        0.0746
      7 C          -1.9845    0.4875   -0.3747 C.3     1  UNL1        0.0955
      8 C          -2.4836   -0.9453   -0.7332 C.3     1  UNL1        0.0415
      9 C           0.0446    1.5059    0.9654 C.3     1  UNL1        0.1701
     10 C          -1.4369   -0.3569    1.9322 C.3     1  UNL1       -0.0241
     11 C           0.1975   -0.5788    0.0906 C.ar    1  UNL1        0.0141
     12 C          -1.5253    1.3174   -1.5857 C.3     1  UNL1       -0.0147
     13 C          -1.3752   -1.8612   -1.3480 C.3     1  UNL1       -0.0091
     14 C          -2.1841   -1.6635    1.6157 C.3     1  UNL1       -0.0027
     15 C           0.0051   -1.6268   -0.7910 C.ar    1  UNL1       -0.0382
     16 C          -0.9646    2.6660   -1.1373 C.3     1  UNL1        0.0123
     17 C           0.2115    2.4792   -0.2055 C.2     1  UNL1        0.1745
     18 C           1.4416   -0.1759    0.5316 C.ar    1  UNL1        0.1671
     19 C           1.1393   -2.3460   -1.1667 C.ar    1  UNL1       -0.0546
     20 C           2.5714   -0.8800    0.1840 C.ar    1  UNL1        0.1618
     21 C           2.4095   -1.9830   -0.6678 C.ar    1  UNL1       -0.0160
     22 C           4.5383    0.4007   -0.1990 C.3     1  UNL1        0.0790
     23 H          -3.3017   -0.8640   -1.4601 H       1  UNL1        0.0492
     24 H          -0.3155    2.0815    1.8256 H       1  UNL1        0.0824
     25 H          -2.1245    0.3390    2.4299 H       1  UNL1        0.0288
     26 H          -0.6454   -0.5744    2.6614 H       1  UNL1        0.0288
     27 H          -2.3787    1.5036   -2.2494 H       1  UNL1        0.0298
     28 H          -0.7689    0.7891   -2.1762 H       1  UNL1        0.0298
     29 H          -1.3321   -1.6560   -2.4257 H       1  UNL1        0.0329
     30 H          -1.6454   -2.9187   -1.2384 H       1  UNL1        0.0329
     31 H          -1.4672   -2.4776    1.4574 H       1  UNL1        0.0424
     32 H          -2.7697   -1.9527    2.4959 H       1  UNL1        0.0424
     33 H          -3.4345   -2.5037    0.2325 H       1  UNL1        0.1223
     34 H          -1.7151    3.2844   -0.6361 H       1  UNL1        0.0344
     35 H          -0.6216    3.2195   -2.0189 H       1  UNL1        0.0344
     36 H          -2.7007    1.9581    0.7333 H       1  UNL1        0.2103
     37 H           1.0571   -3.1805   -1.8578 H       1  UNL1        0.0622
     38 H           3.2790   -2.5594   -0.9762 H       1  UNL1        0.0655
     39 H           3.9937    1.3442   -0.3062 H       1  UNL1        0.0660
     40 H           4.7311   -0.0375   -1.1833 H       1  UNL1        0.0660
     41 H           5.4954    0.6011    0.2900 H       1  UNL1        0.0660
@<TRIPOS>BOND
     1     1     9    1
     2     1    18    1
     3     2     7    1
     4     2    36    1
     5     3    17    2
     6     4    20    1
     7     4    22    1
     8     5     8    1
     9     5    14    1
    10     5    33    1
    11     6     7    1
    12     6     9    1
    13     6    10    1
    14     6    11    1
    15     7     8    1
    16     7    12    1
    17     8    13    1
    18     8    23    1
    19     9    17    1
    20     9    24    1
    21    10    14    1
    22    10    25    1
    23    10    26    1
    24    11    15   ar
    25    11    18   ar
    26    12    16    1
    27    12    27    1
    28    12    28    1
    29    13    15    1
    30    13    29    1
    31    13    30    1
    32    14    31    1
    33    14    32    1
    34    15    19   ar
    35    16    17    1
    36    16    34    1
    37    16    35    1
    38    18    20   ar
    39    19    21   ar
    40    19    37    1
    41    20    21   ar
    42    21    38    1
    43    22    39    1
    44    22    40    1
    45    22    41    1
@<TRIPOS>MOLECULE
9926820
 42 46 0 0 0
SMALL
GASTEIGER

@<TRIPOS>ATOM
      1 O          -1.7083    0.7582   -1.3001 O.3     1  UNL1       -0.4760
      2 O           2.6054    1.9031   -0.2117 O.3     1  UNL1       -0.3819
      3 O          -1.9146    3.1511    0.1614 O.2     1  UNL1       -0.2887
      4 O          -3.7874   -1.1945   -0.6583 O.3     1  UNL1       -0.4914
      5 N           3.1732   -0.7846   -0.4364 N.3     1  UNL1       -0.2990
      6 C           0.6132    0.5544   -0.6621 C.3     1  UNL1        0.0785
      7 C           1.6614    0.9905    0.3710 C.3     1  UNL1        0.1137
      8 C           2.4395   -0.3127    0.7683 C.3     1  UNL1        0.0474
      9 C           1.3188    0.0133   -1.9247 C.3     1  UNL1       -0.0235
     10 C          -0.5161    1.5438   -0.9710 C.3     1  UNL1        0.1744
     11 C          -0.2514   -0.5205   -0.0930 C.ar    1  UNL1        0.0145
     12 C           1.5074   -1.3893    1.4287 C.3     1  UNL1       -0.0086
     13 C           2.3216   -1.1062   -1.5866 C.3     1  UNL1        0.0000
     14 C           0.1310   -1.4778    0.8258 C.ar    1  UNL1       -0.0381
     15 C           1.0527    1.7390    1.5265 C.2     1  UNL1       -0.0470
     16 C          -1.5456   -0.3873   -0.5550 C.ar    1  UNL1        0.1672
     17 C          -0.9151    2.4336    0.2099 C.2     1  UNL1        0.1970
     18 C          -0.1067    2.4043    1.4576 C.2     1  UNL1       -0.0166
     19 C           4.1258   -1.8544   -0.1604 C.3     1  UNL1       -0.0124
     20 C          -0.8392   -2.4049    1.2059 C.ar    1  UNL1       -0.0546
     21 C          -2.5147   -1.2986   -0.2052 C.ar    1  UNL1        0.1618
     22 C          -2.1462   -2.3253    0.6767 C.ar    1  UNL1       -0.0160
     23 C          -4.7048   -0.4353    0.1328 C.3     1  UNL1        0.0790
     24 H           3.2068   -0.0359    1.5051 H       1  UNL1        0.0497
     25 H           1.8505    0.8323   -2.4262 H       1  UNL1        0.0288
     26 H           0.5958   -0.3724   -2.6553 H       1  UNL1        0.0288
     27 H          -0.2707    2.1954   -1.8173 H       1  UNL1        0.0827
     28 H           1.3797   -1.1118    2.4836 H       1  UNL1        0.0329
     29 H           1.9753   -2.3785    1.4259 H       1  UNL1        0.0329
     30 H           1.7810   -2.0460   -1.4179 H       1  UNL1        0.0427
     31 H           2.9489   -1.2698   -2.4719 H       1  UNL1        0.0427
     32 H           1.6193    1.7824    2.4532 H       1  UNL1        0.0602
     33 H           2.1080    2.6338   -0.6177 H       1  UNL1        0.2107
     34 H          -0.4819    2.9592    2.3102 H       1  UNL1        0.0651
     35 H           4.7818   -2.0078   -1.0249 H       1  UNL1        0.0391
     36 H           3.6399   -2.8095    0.0622 H       1  UNL1        0.0391
     37 H           4.7774   -1.5913    0.6799 H       1  UNL1        0.0391
     38 H          -0.6033   -3.1829    1.9270 H       1  UNL1        0.0622
     39 H          -2.8852   -3.0592    0.9906 H       1  UNL1        0.0655
     40 H          -4.8213   -0.8882    1.1223 H       1  UNL1        0.0660
     41 H          -5.6749   -0.4381   -0.3716 H       1  UNL1        0.0660
     42 H          -4.3617    0.5997    0.2297 H       1  UNL1        0.0660
@<TRIPOS>BOND
     1     1    10    1
     2     1    16    1
     3     2     7    1
     4     2    33    1
     5     3    17    2
     6     4    21    1
     7     4    23    1
     8     5     8    1
     9     5    13    1
    10     5    19    1
    11     6     7    1
    12     6     9    1
    13     6    10    1
    14     6    11    1
    15     7     8    1
    16     7    15    1
    17     8    12    1
    18     8    24    1
    19     9    13    1
    20     9    25    1
    21     9    26    1
    22    10    17    1
    23    10    27    1
    24    11    14   ar
    25    11    16   ar
    26    12    14    1
    27    12    28    1
    28    12    29    1
    29    13    30    1
    30    13    31    1
    31    14    20   ar
    32    15    18    2
    33    15    32    1
    34    16    21   ar
    35    17    18    1
    36    18    34    1
    37    19    35    1
    38    19    36    1
    39    19    37    1
    40    20    22   ar
    41    20    38    1
    42    21    22   ar
    43    22    39    1
    44    23    40    1
    45    23    41    1
    46    23    42    1
@<TRIPOS>MOLECULE
156963567
 47 51 0 0 0
SMALL
GASTEIGER

@<TRIPOS>ATOM
      1 O           1.9740    0.9134   -1.2174 O.3     1  UNL1       -0.4764
      2 O          -2.3899    2.0270   -0.3102 O.3     1  UNL1       -0.3872
      3 O           2.2403    3.0423    0.4256 O.2     1  UNL1       -0.2934
      4 O           4.0273   -1.0332   -0.4941 O.3     1  UNL1       -0.4914
      5 N          -3.7513   -1.9227   -0.3290 N.3     1  UNL1       -0.3159
      6 C          -0.3730    0.7042   -0.6711 C.3     1  UNL1        0.0723
      7 C          -1.4709    1.1229    0.3219 C.3     1  UNL1        0.0845
      8 C          -2.2590   -0.1816    0.6892 C.3     1  UNL1        0.0082
      9 C          -0.9981    0.1692   -1.9856 C.3     1  UNL1       -0.0353
     10 C           0.7700    1.6989   -0.9424 C.3     1  UNL1        0.1700
     11 C          -2.9622   -0.7192   -0.5985 C.3     1  UNL1        0.0131
     12 C           0.4702   -0.3650   -0.0659 C.ar    1  UNL1        0.0140
     13 C          -0.9043    1.8676    1.5440 C.3     1  UNL1       -0.0159
     14 C          -1.9846   -0.9866   -1.7527 C.3     1  UNL1       -0.0362
     15 C          -1.3467   -1.2558    1.3779 C.3     1  UNL1       -0.0204
     16 C           0.0527   -1.3319    0.8280 C.ar    1  UNL1       -0.0393
     17 C          -0.0418    3.0572    1.1272 C.3     1  UNL1        0.0122
     18 C           1.0994    2.6158    0.2399 C.2     1  UNL1        0.1745
     19 C           1.7819   -0.2288   -0.4747 C.ar    1  UNL1        0.1671
     20 C           1.0094   -2.2591    1.2424 C.ar    1  UNL1       -0.0546
     21 C           2.7381   -1.1405   -0.0906 C.ar    1  UNL1        0.1618
     22 C           2.3369   -2.1729    0.7694 C.ar    1  UNL1       -0.0160
     23 C          -4.9604   -1.5882    0.4051 C.3     1  UNL1       -0.0155
     24 C           4.9420   -2.0331   -0.0384 C.3     1  UNL1        0.0790
     25 H          -3.0430    0.0961    1.4053 H       1  UNL1        0.0347
     26 H          -0.2242   -0.1724   -2.6857 H       1  UNL1        0.0276
     27 H          -1.5241    0.9864   -2.4958 H       1  UNL1        0.0276
     28 H           0.5595    2.3387   -1.8070 H       1  UNL1        0.0824
     29 H          -3.6480    0.0555   -0.9687 H       1  UNL1        0.0464
     30 H          -0.3034    1.2036    2.1749 H       1  UNL1        0.0297
     31 H          -1.7258    2.2402    2.1684 H       1  UNL1        0.0297
     32 H          -2.5416   -1.1669   -2.6813 H       1  UNL1        0.0281
     33 H          -1.4189   -1.9080   -1.5636 H       1  UNL1        0.0281
     34 H          -1.8083   -2.2480    1.3418 H       1  UNL1        0.0317
     35 H          -1.2622   -0.9892    2.4396 H       1  UNL1        0.0317
     36 H           0.3723    3.5372    2.0206 H       1  UNL1        0.0344
     37 H          -0.6275    3.8067    0.5848 H       1  UNL1        0.0344
     38 H          -3.1063    2.2150    0.3199 H       1  UNL1        0.2102
     39 H          -4.0195   -2.3556   -1.2129 H       1  UNL1        0.1219
     40 H           0.7443   -3.0427    1.9473 H       1  UNL1        0.0622
     41 H           3.0185   -2.9334    1.1385 H       1  UNL1        0.0655
     42 H          -4.7496   -1.2418    1.4205 H       1  UNL1        0.0388
     43 H          -5.5676   -0.8404   -0.1158 H       1  UNL1        0.0388
     44 H          -5.5737   -2.4898    0.5070 H       1  UNL1        0.0388
     45 H           5.9198   -1.7991   -0.4715 H       1  UNL1        0.0660
     46 H           5.0551   -2.0037    1.0504 H       1  UNL1        0.0660
     47 H           4.6588   -3.0281   -0.3977 H       1  UNL1        0.0660
@<TRIPOS>BOND
     1     1    10    1
     2     1    19    1
     3     2     7    1
     4     2    38    1
     5     3    18    2
     6     4    21    1
     7     4    24    1
     8     5    11    1
     9     5    23    1
    10     5    39    1
    11     6     7    1
    12     6     9    1
    13     6    10    1
    14     6    12    1
    15     7     8    1
    16     7    13    1
    17     8    11    1
    18     8    15    1
    19     8    25    1
    20     9    14    1
    21     9    26    1
    22     9    27    1
    23    10    18    1
    24    10    28    1
    25    11    14    1
    26    11    29    1
    27    12    16   ar
    28    12    19   ar
    29    13    17    1
    30    13    30    1
    31    13    31    1
    32    14    32    1
    33    14    33    1
    34    15    16    1
    35    15    34    1
    36    15    35    1
    37    16    20   ar
    38    17    18    1
    39    17    36    1
    40    17    37    1
    41    19    21   ar
    42    20    22   ar
    43    20    40    1
    44    21    22   ar
    45    22    41    1
    46    23    42    1
    47    23    43    1
    48    23    44    1
    49    24    45    1
    50    24    46    1
    51    24    47    1
