@<TRIPOS>MOLECULE
5284604
 41 45 0 0 0
SMALL
GASTEIGER

@<TRIPOS>ATOM
      1 O          -1.9793   -0.6326    1.2642 O.3     1  UNL1       -0.4764
      2 O           2.2636   -1.9798    0.2361 O.3     1  UNL1       -0.3860
      3 O          -2.3860   -2.7779   -0.3344 O.2     1  UNL1       -0.2934
      4 O          -3.9577    1.4086    0.5898 O.3     1  UNL1       -0.5033
      5 N           2.9859    0.6768    0.4563 N.3     1  UNL1       -0.2993
      6 C           0.3557   -0.5401    0.6425 C.3     1  UNL1        0.0746
      7 C           1.3992   -1.0114   -0.3812 C.3     1  UNL1        0.0957
      8 C           2.2459    0.2509   -0.7602 C.3     1  UNL1        0.0438
      9 C          -0.8206   -1.4753    0.9659 C.3     1  UNL1        0.1701
     10 C           1.0713   -0.0242    1.9133 C.3     1  UNL1       -0.0238
     11 C          -0.4526    0.5681    0.0608 C.ar    1  UNL1        0.0141
     12 C           0.7483   -1.7226   -1.5809 C.3     1  UNL1       -0.0147
     13 C           1.3742    1.3787   -1.4180 C.3     1  UNL1       -0.0089
     14 C           2.1324    1.0444    1.5908 C.3     1  UNL1        0.0000
     15 C          -0.0109    1.5167   -0.8418 C.ar    1  UNL1       -0.0382
     16 C          -0.1306   -2.8819   -1.1142 C.3     1  UNL1        0.0123
     17 C          -1.2247   -2.3917   -0.1929 C.2     1  UNL1        0.1745
     18 C          -1.7560    0.4951    0.5087 C.ar    1  UNL1        0.1669
     19 C           4.0005    1.6928    0.1984 C.3     1  UNL1       -0.0124
     20 C          -0.9325    2.4888   -1.2305 C.ar    1  UNL1       -0.0546
     21 C          -2.6767    1.4522    0.1496 C.ar    1  UNL1        0.1588
     22 C          -2.2497    2.4646   -0.7222 C.ar    1  UNL1       -0.0162
     23 H           3.0041   -0.0633   -1.4904 H       1  UNL1        0.0494
     24 H          -0.6128   -2.1115    1.8337 H       1  UNL1        0.0824
     25 H           1.5550   -0.8644    2.4284 H       1  UNL1        0.0288
     26 H           0.3567    0.3993    2.6314 H       1  UNL1        0.0288
     27 H           1.5293   -2.1261   -2.2372 H       1  UNL1        0.0298
     28 H           0.1463   -1.0347   -2.1840 H       1  UNL1        0.0298
     29 H           1.2590    1.1281   -2.4809 H       1  UNL1        0.0329
     30 H           1.8831    2.3471   -1.3860 H       1  UNL1        0.0329
     31 H           1.6418    2.0092    1.4117 H       1  UNL1        0.0427
     32 H           2.7519    1.1789    2.4865 H       1  UNL1        0.0427
     33 H           0.4415   -3.6589   -0.5984 H       1  UNL1        0.0344
     34 H          -0.5990   -3.3479   -1.9887 H       1  UNL1        0.0344
     35 H           1.7212   -2.5963    0.7554 H       1  UNL1        0.2103
     36 H           4.6494    1.8085    1.0739 H       1  UNL1        0.0391
     37 H           3.5724    2.6738   -0.0304 H       1  UNL1        0.0391
     38 H           4.6506    1.3949   -0.6314 H       1  UNL1        0.0391
     39 H          -0.6499    3.2612   -1.9407 H       1  UNL1        0.0622
     40 H          -2.9504    3.2330   -1.0414 H       1  UNL1        0.0655
     41 H          -4.0557    0.6337    1.1700 H       1  UNL1        0.2923
@<TRIPOS>BOND
     1     1     9    1
     2     1    18    1
     3     2     7    1
     4     2    35    1
     5     3    17    2
     6     4    21    1
     7     4    41    1
     8     5     8    1
     9     5    14    1
    10     5    19    1
    11     6     7    1
    12     6     9    1
    13     6    10    1
    14     6    11    1
    15     7     8    1
    16     7    12    1
    17     8    13    1
    18     8    23    1
    19     9    17    1
    20     9    24    1
    21    10    14    1
    22    10    25    1
    23    10    26    1
    24    11    15   ar
    25    11    18   ar
    26    12    16    1
    27    12    27    1
    28    12    28    1
    29    13    15    1
    30    13    29    1
    31    13    30    1
    32    14    31    1
    33    14    32    1
    34    15    20   ar
    35    16    17    1
    36    16    33    1
    37    16    34    1
    38    18    21   ar
    39    19    36    1
    40    19    37    1
    41    19    38    1
    42    20    22   ar
    43    20    39    1
    44    21    22   ar
    45    22    40    1
@<TRIPOS>MOLECULE
45040176
 41 45 0 0 0
SMALL
GASTEIGER

@<TRIPOS>ATOM
      1 O          -1.9792   -0.6325    1.2644 O.3     1  UNL1       -0.4764
      2 O           2.2632   -1.9801    0.2352 O.3     1  UNL1       -0.3860
      3 O          -2.3865   -2.7778   -0.3339 O.2     1  UNL1       -0.2934
      4 O          -3.9575    1.4088    0.5903 O.3     1  UNL1       -0.5033
      5 N           2.9862    0.6761    0.4563 N.3     1  UNL1       -0.2993
      6 C           0.3559   -0.5401    0.6424 C.3     1  UNL1        0.0746
      7 C           1.3991   -1.0113   -0.3815 C.3     1  UNL1        0.0957
      8 C           2.2460    0.2510   -0.7604 C.3     1  UNL1        0.0438
      9 C          -0.8206   -1.4752    0.9659 C.3     1  UNL1        0.1701
     10 C           1.0718   -0.0250    1.9133 C.3     1  UNL1       -0.0238
     11 C          -0.4523    0.5683    0.0613 C.ar    1  UNL1        0.0141
     12 C           0.7477   -1.7219   -1.5814 C.3     1  UNL1       -0.0147
     13 C           1.3744    1.3792   -1.4174 C.3     1  UNL1       -0.0089
     14 C           2.1333    1.0435    1.5911 C.3     1  UNL1        0.0000
     15 C          -0.0108    1.5169   -0.8415 C.ar    1  UNL1       -0.0382
     16 C          -0.1313   -2.8813   -1.1149 C.3     1  UNL1        0.0123
     17 C          -1.2252   -2.3914   -0.1930 C.2     1  UNL1        0.1745
     18 C          -1.7560    0.4952    0.5088 C.ar    1  UNL1        0.1669
     19 C           4.0010    1.6920    0.1986 C.3     1  UNL1       -0.0124
     20 C          -0.9325    2.4888   -1.2305 C.ar    1  UNL1       -0.0546
     21 C          -2.6768    1.4523    0.1496 C.ar    1  UNL1        0.1588
     22 C          -2.2498    2.4644   -0.7226 C.ar    1  UNL1       -0.0162
     23 H           3.0040   -0.0607   -1.4920 H       1  UNL1        0.0494
     24 H          -0.6123   -2.1117    1.8333 H       1  UNL1        0.0824
     25 H           0.3579    0.3975    2.6327 H       1  UNL1        0.0288
     26 H           1.5560   -0.8669    2.4253 H       1  UNL1        0.0288
     27 H           0.1440   -1.0332   -2.1822 H       1  UNL1        0.0298
     28 H           1.5256   -2.1240   -2.2421 H       1  UNL1        0.0298
     29 H           1.2593    1.1294   -2.4806 H       1  UNL1        0.0329
     30 H           1.8832    2.3476   -1.3848 H       1  UNL1        0.0329
     31 H           1.6429    2.0086    1.4126 H       1  UNL1        0.0427
     32 H           2.7530    1.1774    2.4867 H       1  UNL1        0.0427
     33 H           0.4484   -3.6457   -0.5875 H       1  UNL1        0.0344
     34 H          -0.5954   -3.3566   -1.9862 H       1  UNL1        0.0344
     35 H           2.9711   -2.1909   -0.3973 H       1  UNL1        0.2103
     36 H           3.5732    2.6731   -0.0299 H       1  UNL1        0.0391
     37 H           4.6501    1.8073    1.0741 H       1  UNL1        0.0391
     38 H           4.6510    1.3942   -0.6314 H       1  UNL1        0.0391
     39 H          -0.6498    3.2612   -1.9408 H       1  UNL1        0.0622
     40 H          -2.9459    3.2357   -1.0455 H       1  UNL1        0.0655
     41 H          -4.4434    2.1647    0.2178 H       1  UNL1        0.2923
@<TRIPOS>BOND
     1     1     9    1
     2     1    18    1
     3     2     7    1
     4     2    35    1
     5     3    17    2
     6     4    21    1
     7     4    41    1
     8     5     8    1
     9     5    14    1
    10     5    19    1
    11     6     7    1
    12     6     9    1
    13     6    10    1
    14     6    11    1
    15     7     8    1
    16     7    12    1
    17     8    13    1
    18     8    23    1
    19     9    17    1
    20     9    24    1
    21    10    14    1
    22    10    25    1
    23    10    26    1
    24    11    15   ar
    25    11    18   ar
    26    12    16    1
    27    12    27    1
    28    12    28    1
    29    13    15    1
    30    13    29    1
    31    13    30    1
    32    14    31    1
    33    14    32    1
    34    15    20   ar
    35    16    17    1
    36    16    33    1
    37    16    34    1
    38    18    21   ar
    39    19    36    1
    40    19    37    1
    41    19    38    1
    42    20    22   ar
    43    20    39    1
    44    21    22   ar
    45    22    40    1
@<TRIPOS>MOLECULE
129868
 48 53 0 0 0
SMALL
GASTEIGER

@<TRIPOS>ATOM
      1 O           1.0898   -0.7217    1.4828 O.3     1  UNL1       -0.4812
      2 O          -1.5152    2.7715    0.0503 O.3     1  UNL1       -0.3860
      3 O           2.9725    2.6542    1.2389 O.2     1  UNL1       -0.2729
      4 O           1.4799   -3.5935    1.1072 O.3     1  UNL1       -0.5033
      5 O           4.3869   -0.9022   -1.2746 O.2     1  UNL1       -0.2524
      6 N          -3.6275    1.0204    0.2213 N.3     1  UNL1       -0.2993
      7 N           2.2681    0.0000   -0.8839 N.am    1  UNL1       -0.2820
      8 N           4.0270    0.9405    0.0939 N.am    1  UNL1       -0.2383
      9 C          -0.7883    0.5295    0.6111 C.3     1  UNL1        0.0702
     10 C          -1.3116    1.4549   -0.4950 C.3     1  UNL1        0.0951
     11 C           0.7016    0.6213    1.0084 C.3     1  UNL1        0.1423
     12 C          -2.7006    0.8799   -0.9327 C.3     1  UNL1        0.0438
     13 C           1.6685    1.0879   -0.1245 C.3     1  UNL1        0.1502
     14 C          -1.7440    0.6048    1.8297 C.3     1  UNL1       -0.0242
     15 C          -0.3007    1.6304   -1.6375 C.3     1  UNL1       -0.0190
     16 C          -0.7557   -0.8826    0.1417 C.ar    1  UNL1        0.0137
     17 C           1.0501    2.1097   -1.0866 C.3     1  UNL1       -0.0167
     18 C          -2.5895   -0.5767   -1.5052 C.3     1  UNL1       -0.0089
     19 C          -3.2068    0.3168    1.4377 C.3     1  UNL1        0.0000
     20 C          -1.6054   -1.4579   -0.7825 C.ar    1  UNL1       -0.0382
     21 C           0.2836   -1.5620    0.7466 C.ar    1  UNL1        0.1664
     22 C           2.9431    1.6783    0.5003 C.2     1  UNL1        0.2476
     23 C          -5.0199    0.7360   -0.1073 C.3     1  UNL1       -0.0124
     24 C          -1.4233   -2.8166   -1.0392 C.ar    1  UNL1       -0.0546
     25 C           0.4696   -2.9063    0.5211 C.ar    1  UNL1        0.1588
     26 C           3.6519   -0.0802   -0.7452 C.2     1  UNL1        0.3068
     27 C          -0.4043   -3.5365   -0.3769 C.ar    1  UNL1       -0.0162
     28 H           0.7991    1.2986    1.8665 H       1  UNL1        0.0770
     29 H          -3.0960    1.5263   -1.7282 H       1  UNL1        0.0494
     30 H          -1.6836    1.6039    2.2808 H       1  UNL1        0.0288
     31 H          -1.4491   -0.0996    2.6187 H       1  UNL1        0.0288
     32 H          -0.6679    2.3853   -2.3442 H       1  UNL1        0.0294
     33 H          -0.1600    0.7064   -2.2077 H       1  UNL1        0.0294
     34 H           1.7272    2.3016   -1.9297 H       1  UNL1        0.0293
     35 H           0.9237    3.0755   -0.5810 H       1  UNL1        0.0293
     36 H          -2.2512   -0.4992   -2.5469 H       1  UNL1        0.0329
     37 H          -3.5676   -1.0666   -1.5373 H       1  UNL1        0.0329
     38 H          -3.3520   -0.7652    1.3292 H       1  UNL1        0.0427
     39 H          -3.8427    0.6262    2.2768 H       1  UNL1        0.0427
     40 H          -1.9457    3.3125   -0.6335 H       1  UNL1        0.2103
     41 H           1.7370   -0.6366   -1.4699 H       1  UNL1        0.1514
     42 H          -5.6747    1.0642    0.7079 H       1  UNL1        0.0391
     43 H          -5.2076   -0.3289   -0.2769 H       1  UNL1        0.0391
     44 H          -5.3330    1.2908   -0.9984 H       1  UNL1        0.0391
     45 H          -2.0551   -3.3292   -1.7596 H       1  UNL1        0.0622
     46 H           4.9832    1.1291    0.3722 H       1  UNL1        0.1591
     47 H          -0.2824   -4.5953   -0.5951 H       1  UNL1        0.0655
     48 H           1.9762   -2.9808    1.6775 H       1  UNL1        0.2923
@<TRIPOS>BOND
     1     1    11    1
     2     1    21    1
     3     2    10    1
     4     2    40    1
     5     3    22    2
     6     4    25    1
     7     4    48    1
     8     5    26    2
     9     6    12    1
    10     6    19    1
    11     6    23    1
    12     7    13    1
    13     7    26   am
    14     7    41    1
    15     8    22   am
    16     8    26   am
    17     8    46    1
    18     9    10    1
    19     9    11    1
    20     9    14    1
    21     9    16    1
    22    10    12    1
    23    10    15    1
    24    11    13    1
    25    11    28    1
    26    12    18    1
    27    12    29    1
    28    13    17    1
    29    13    22    1
    30    14    19    1
    31    14    30    1
    32    14    31    1
    33    15    17    1
    34    15    32    1
    35    15    33    1
    36    16    20   ar
    37    16    21   ar
    38    17    34    1
    39    17    35    1
    40    18    20    1
    41    18    36    1
    42    18    37    1
    43    19    38    1
    44    19    39    1
    45    20    24   ar
    46    21    25   ar
    47    23    42    1
    48    23    43    1
    49    23    44    1
    50    24    27   ar
    51    24    45    1
    52    25    27   ar
    53    27    47    1
@<TRIPOS>MOLECULE
163285541
 42 46 0 0 0
SMALL
GASTEIGER

@<TRIPOS>ATOM
      1 O           2.1457    0.6916    1.2012 O.3     1  UNL1       -0.4764
      2 O          -2.0774    2.1638    0.2863 O.3     1  UNL1       -0.3859
      3 O          -1.4698   -1.2612   -2.5107 O.3     1  UNL1       -0.3855
      4 O           2.5580    2.6777   -0.5903 O.2     1  UNL1       -0.2934
      5 O           3.9832   -1.5003    0.6209 O.3     1  UNL1       -0.5033
      6 N          -2.9200   -0.4041    0.7884 N.3     1  UNL1       -0.2972
      7 C          -0.2228    0.6645    0.7161 C.3     1  UNL1        0.0748
      8 C          -1.2985    1.1000   -0.2885 C.3     1  UNL1        0.0981
      9 C          -2.2314   -0.1447   -0.5034 C.3     1  UNL1        0.0702
     10 C           1.0119    1.5634    0.8950 C.3     1  UNL1        0.1701
     11 C          -0.8864    0.2997    2.0657 C.3     1  UNL1       -0.0238
     12 C           0.4969   -0.5294    0.1911 C.ar    1  UNL1        0.0166
     13 C          -0.6812    1.6766   -1.5756 C.3     1  UNL1       -0.0146
     14 C          -1.4623   -1.3899   -1.0841 C.3     1  UNL1        0.0987
     15 C          -2.0216   -0.7275    1.9006 C.3     1  UNL1        0.0001
     16 C          -0.0404   -1.5331   -0.5936 C.ar    1  UNL1       -0.0099
     17 C           0.2684    2.8297   -1.2543 C.3     1  UNL1        0.0123
     18 C           1.3904    2.3623   -0.3554 C.2     1  UNL1        0.1745
     19 C           1.8263   -0.4843    0.5629 C.ar    1  UNL1        0.1670
     20 C          -4.0160   -1.3609    0.6856 C.3     1  UNL1       -0.0123
     21 C           0.8116   -2.5900   -0.9212 C.ar    1  UNL1       -0.0521
     22 C           2.6795   -1.5178    0.2522 C.ar    1  UNL1        0.1588
     23 C           2.1558   -2.5861   -0.4890 C.ar    1  UNL1       -0.0162
     24 H          -3.0104    0.1617   -1.2156 H       1  UNL1        0.0520
     25 H           0.8830    2.2780    1.7158 H       1  UNL1        0.0824
     26 H          -1.2927    1.2088    2.5284 H       1  UNL1        0.0288
     27 H          -0.1531   -0.1013    2.7779 H       1  UNL1        0.0288
     28 H          -1.4747    2.0551   -2.2316 H       1  UNL1        0.0298
     29 H          -0.1326    0.9164   -2.1407 H       1  UNL1        0.0298
     30 H          -1.9950   -2.3194   -0.8606 H       1  UNL1        0.0660
     31 H          -1.5976   -1.7321    1.7801 H       1  UNL1        0.0427
     32 H          -2.5911   -0.7472    2.8384 H       1  UNL1        0.0427
     33 H          -0.2477    3.6600   -0.7616 H       1  UNL1        0.0344
     34 H           0.7022    3.2114   -2.1851 H       1  UNL1        0.0344
     35 H          -2.8086    2.3588   -0.3243 H       1  UNL1        0.2103
     36 H          -4.6950   -1.0914   -0.1307 H       1  UNL1        0.0391
     37 H          -3.6727   -2.3878    0.5266 H       1  UNL1        0.0391
     38 H          -4.6148   -1.3483    1.6034 H       1  UNL1        0.0391
     39 H           0.4510   -3.4167   -1.5277 H       1  UNL1        0.0622
     40 H          -2.3969   -1.2927   -2.8026 H       1  UNL1        0.2103
     41 H           2.7935   -3.4229   -0.7659 H       1  UNL1        0.0655
     42 H           4.4109   -2.3131    0.3007 H       1  UNL1        0.2923
@<TRIPOS>BOND
     1     1    10    1
     2     1    19    1
     3     2     8    1
     4     2    35    1
     5     3    14    1
     6     3    40    1
     7     4    18    2
     8     5    22    1
     9     5    42    1
    10     6     9    1
    11     6    15    1
    12     6    20    1
    13     7     8    1
    14     7    10    1
    15     7    11    1
    16     7    12    1
    17     8     9    1
    18     8    13    1
    19     9    14    1
    20     9    24    1
    21    10    18    1
    22    10    25    1
    23    11    15    1
    24    11    26    1
    25    11    27    1
    26    12    16   ar
    27    12    19   ar
    28    13    17    1
    29    13    28    1
    30    13    29    1
    31    14    16    1
    32    14    30    1
    33    15    31    1
    34    15    32    1
    35    16    21   ar
    36    17    18    1
    37    17    33    1
    38    17    34    1
    39    19    22   ar
    40    20    36    1
    41    20    37    1
    42    20    38    1
    43    21    23   ar
    44    21    39    1
    45    22    23   ar
    46    23    41    1
@<TRIPOS>MOLECULE
6712731
 43 47 0 0 0
SMALL
GASTEIGER

@<TRIPOS>ATOM
      1 O           2.0294    0.6113    1.1843 O.3     1  UNL1       -0.4813
      2 O          -2.2738    1.9531    0.2137 O.3     1  UNL1       -0.3860
      3 O           2.0582    3.4508    0.0616 O.3     1  UNL1       -0.3881
      4 O           3.9579   -1.4947    0.5576 O.3     1  UNL1       -0.5033
      5 N          -2.9467   -0.6839    0.5272 N.3     1  UNL1       -0.2993
      6 C          -0.3145    0.5419    0.5980 C.3     1  UNL1        0.0701
      7 C          -1.3945    0.9917   -0.3971 C.3     1  UNL1        0.0951
      8 C          -2.2490   -0.2797   -0.7228 C.3     1  UNL1        0.0438
      9 C           0.8843    1.4802    0.8403 C.3     1  UNL1        0.1384
     10 C          -0.9882    0.0654    1.9077 C.3     1  UNL1       -0.0242
     11 C           0.4661   -0.5945    0.0329 C.ar    1  UNL1        0.0137
     12 C          -0.8036    1.6896   -1.6335 C.3     1  UNL1       -0.0191
     13 C           1.3057    2.3230   -0.3869 C.3     1  UNL1        0.0930
     14 C          -1.3985   -1.4189   -1.3871 C.3     1  UNL1       -0.0089
     15 C           0.1353    2.8283   -1.2248 C.3     1  UNL1       -0.0207
     16 C          -2.0590   -1.0124    1.6480 C.3     1  UNL1        0.0000
     17 C          -0.0053   -1.5613   -0.8337 C.ar    1  UNL1       -0.0382
     18 C           1.7753   -0.5377    0.4692 C.ar    1  UNL1        0.1664
     19 C          -3.9595   -1.7144    0.3266 C.3     1  UNL1       -0.0124
     20 C           0.8927   -2.5624   -1.2034 C.ar    1  UNL1       -0.0546
     21 C           2.6723   -1.5242    0.1308 C.ar    1  UNL1        0.1588
     22 C           2.2155   -2.5512   -0.7085 C.ar    1  UNL1       -0.0162
     23 H          -3.0331    0.0165   -1.4331 H       1  UNL1        0.0494
     24 H           0.7078    2.1355    1.7020 H       1  UNL1        0.0769
     25 H          -1.4496    0.9211    2.4172 H       1  UNL1        0.0288
     26 H          -0.2514   -0.3402    2.6137 H       1  UNL1        0.0288
     27 H          -1.6133    2.1123   -2.2414 H       1  UNL1        0.0294
     28 H          -0.2554    0.9904   -2.2738 H       1  UNL1        0.0294
     29 H           1.9805    1.7470   -1.0319 H       1  UNL1        0.0630
     30 H          -1.3011   -1.1807   -2.4546 H       1  UNL1        0.0329
     31 H          -1.9145   -2.3827   -1.3359 H       1  UNL1        0.0329
     32 H           0.5168    3.3302   -2.1227 H       1  UNL1        0.0292
     33 H          -0.4147    3.6000   -0.6713 H       1  UNL1        0.0292
     34 H          -1.5729   -1.9825    1.4861 H       1  UNL1        0.0427
     35 H          -2.6524   -1.1186    2.5648 H       1  UNL1        0.0427
     36 H          -2.8879    1.4864    0.8042 H       1  UNL1        0.2103
     37 H          -4.6354   -1.4448   -0.4922 H       1  UNL1        0.0391
     38 H          -4.5822   -1.8108    1.2233 H       1  UNL1        0.0391
     39 H          -3.5293   -2.6979    0.1129 H       1  UNL1        0.0391
     40 H           0.5862   -3.3507   -1.8859 H       1  UNL1        0.0622
     41 H           2.3391    3.9491   -0.7248 H       1  UNL1        0.2099
     42 H           2.8919   -3.3462   -1.0152 H       1  UNL1        0.0655
     43 H           4.4242   -2.2712    0.2029 H       1  UNL1        0.2923
@<TRIPOS>BOND
     1     1     9    1
     2     1    18    1
     3     2     7    1
     4     2    36    1
     5     3    13    1
     6     3    41    1
     7     4    21    1
     8     4    43    1
     9     5     8    1
    10     5    16    1
    11     5    19    1
    12     6     7    1
    13     6     9    1
    14     6    10    1
    15     6    11    1
    16     7     8    1
    17     7    12    1
    18     8    14    1
    19     8    23    1
    20     9    13    1
    21     9    24    1
    22    10    16    1
    23    10    25    1
    24    10    26    1
    25    11    17   ar
    26    11    18   ar
    27    12    15    1
    28    12    27    1
    29    12    28    1
    30    13    15    1
    31    13    29    1
    32    14    17    1
    33    14    30    1
    34    14    31    1
    35    15    32    1
    36    15    33    1
    37    16    34    1
    38    16    35    1
    39    17    20   ar
    40    18    21   ar
    41    19    37    1
    42    19    38    1
    43    19    39    1
    44    20    22   ar
    45    20    40    1
    46    21    22   ar
    47    22    42    1
@<TRIPOS>MOLECULE
631218
 51 55 0 0 0
SMALL
GASTEIGER

@<TRIPOS>ATOM
      1 O          -1.5493    1.5504    0.0002 O.3     1  UNL1       -0.4763
      2 O           1.9750    0.2388    1.4107 O.3     1  UNL1       -0.4556
      3 O           0.1905    3.7947   -1.1017 O.2     1  UNL1       -0.2934
      4 O          -3.9582    0.1541    1.0389 O.3     1  UNL1       -0.4223
      5 O           4.2532   -0.1284    1.3020 O.2     1  UNL1       -0.2511
      6 O          -4.6214   -0.4606   -1.1202 O.2     1  UNL1       -0.2507
      7 N           2.1929   -1.4156   -1.9092 N.3     1  UNL1       -0.2983
      8 C           0.4742    0.4310   -0.5025 C.3     1  UNL1        0.0856
      9 C           1.8903    0.1484   -0.0187 C.3     1  UNL1        0.1430
     10 C           2.1762   -1.3297   -0.4332 C.3     1  UNL1        0.0550
     11 C          -0.1232    1.7088    0.0753 C.3     1  UNL1        0.1711
     12 C           0.3596    0.2752   -2.0467 C.3     1  UNL1       -0.0228
     13 C          -0.5009   -0.4808    0.1160 C.ar    1  UNL1        0.0152
     14 C           2.7965    1.2701   -0.5833 C.3     1  UNL1       -0.0035
     15 C           1.1485   -2.3229    0.2811 C.3     1  UNL1       -0.0079
     16 C           0.9117   -1.0759   -2.5358 C.3     1  UNL1        0.0001
     17 C          -0.2603   -1.7954    0.4474 C.ar    1  UNL1       -0.0381
     18 C           2.2213    2.6932   -0.3311 C.3     1  UNL1        0.0133
     19 C           0.7011    2.8264   -0.5473 C.2     1  UNL1        0.1746
     20 C          -1.6849    0.2062    0.3268 C.ar    1  UNL1        0.1679
     21 C           2.7091   -2.6856   -2.4084 C.3     1  UNL1       -0.0123
     22 C          -1.3463   -2.4824    0.9787 C.ar    1  UNL1       -0.0545
     23 C          -2.7714   -0.4630    0.8292 C.ar    1  UNL1        0.1733
     24 C          -2.5927   -1.8234    1.1515 C.ar    1  UNL1       -0.0153
     25 C           3.2233    0.0795    1.9292 C.2     1  UNL1        0.3045
     26 C           3.1592    0.1986    3.4218 C.3     1  UNL1        0.0333
     27 C          -4.8471    0.0896   -0.0504 C.2     1  UNL1        0.3093
     28 C          -6.1269    0.7989    0.2796 C.3     1  UNL1        0.0336
     29 H           3.1714   -1.6343   -0.0946 H       1  UNL1        0.0505
     30 H           0.0848    1.8228    1.1536 H       1  UNL1        0.0824
     31 H           0.9013    1.0784   -2.5597 H       1  UNL1        0.0289
     32 H          -0.6817    0.3673   -2.3838 H       1  UNL1        0.0289
     33 H           2.8892    1.1538   -1.6700 H       1  UNL1        0.0309
     34 H           3.8310    1.2783   -0.2419 H       1  UNL1        0.0309
     35 H           1.5362   -2.5210    1.2894 H       1  UNL1        0.0330
     36 H           1.1160   -3.2878   -0.2342 H       1  UNL1        0.0330
     37 H           0.1687   -1.8643   -2.3621 H       1  UNL1        0.0427
     38 H           1.0396   -1.0113   -3.6237 H       1  UNL1        0.0427
     39 H           2.7271    3.4075   -0.9901 H       1  UNL1        0.0344
     40 H           2.4240    2.9927    0.7037 H       1  UNL1        0.0344
     41 H           2.8696   -2.6282   -3.4910 H       1  UNL1        0.0391
     42 H           2.0349   -3.5258   -2.2157 H       1  UNL1        0.0391
     43 H           3.6841   -2.9138   -1.9640 H       1  UNL1        0.0391
     44 H          -1.2491   -3.5233    1.2745 H       1  UNL1        0.0622
     45 H          -3.4252   -2.3883    1.5673 H       1  UNL1        0.0656
     46 H           2.5092   -0.5807    3.8278 H       1  UNL1        0.0342
     47 H           2.7921    1.1900    3.6986 H       1  UNL1        0.0342
     48 H           4.1618    0.0687    3.8393 H       1  UNL1        0.0342
     49 H          -6.6004    0.3228    1.1416 H       1  UNL1        0.0342
     50 H          -6.8082    0.7345   -0.5736 H       1  UNL1        0.0342
     51 H          -5.9218    1.8523    0.4852 H       1  UNL1        0.0342
@<TRIPOS>BOND
     1     1    11    1
     2     1    20    1
     3     2     9    1
     4     2    25    1
     5     3    19    2
     6     4    23    1
     7     4    27    1
     8     5    25    2
     9     6    27    2
    10     7    10    1
    11     7    16    1
    12     7    21    1
    13     8     9    1
    14     8    11    1
    15     8    12    1
    16     8    13    1
    17     9    10    1
    18     9    14    1
    19    10    15    1
    20    10    29    1
    21    11    19    1
    22    11    30    1
    23    12    16    1
    24    12    31    1
    25    12    32    1
    26    13    17   ar
    27    13    20   ar
    28    14    18    1
    29    14    33    1
    30    14    34    1
    31    15    17    1
    32    15    35    1
    33    15    36    1
    34    16    37    1
    35    16    38    1
    36    17    22   ar
    37    18    19    1
    38    18    39    1
    39    18    40    1
    40    20    23   ar
    41    21    41    1
    42    21    42    1
    43    21    43    1
    44    22    24   ar
    45    22    44    1
    46    23    24   ar
    47    24    45    1
    48    25    26    1
    49    26    46    1
    50    26    47    1
    51    26    48    1
    52    27    28    1
    53    28    49    1
    54    28    50    1
    55    28    51    1
@<TRIPOS>MOLECULE
6442029
 56 60 0 0 0
SMALL
GASTEIGER

@<TRIPOS>ATOM
      1 O          -0.0037    0.9334   -0.9864 O.3     1  UNL1       -0.4820
      2 O          -2.3519   -2.8533    0.0027 O.3     1  UNL1       -0.3860
      3 O          -0.0419    3.8283   -0.5772 O.3     1  UNL1       -0.5033
      4 O           2.6340    1.1184    0.5235 O.2     1  UNL1       -0.2708
      5 O           7.4416    0.4500   -0.2822 O.3     1  UNL1       -0.4649
      6 O           6.7357   -1.7498   -0.2967 O.2     1  UNL1       -0.2456
      7 N          -4.7110   -1.2524   -0.7132 N.3     1  UNL1       -0.2993
      8 N           1.7965   -1.0488    0.5346 N.am    1  UNL1       -0.3054
      9 C          -1.8564   -0.5429   -0.5080 C.3     1  UNL1        0.0694
     10 C          -2.4831   -1.5139    0.4970 C.3     1  UNL1        0.0950
     11 C          -0.3174   -0.4504   -0.5725 C.3     1  UNL1        0.1309
     12 C          -3.9985   -1.1320    0.5879 C.3     1  UNL1        0.0438
     13 C          -2.5083   -0.7583   -1.8958 C.3     1  UNL1       -0.0242
     14 C          -2.0992    0.8636   -0.0784 C.ar    1  UNL1        0.0137
     15 C          -1.7431   -1.5050    1.8463 C.3     1  UNL1       -0.0198
     16 C           0.4105   -0.7077    0.7730 C.3     1  UNL1        0.0613
     17 C          -4.2074    0.3294    1.1272 C.3     1  UNL1       -0.0089
     18 C          -0.2497   -1.7808    1.6401 C.3     1  UNL1       -0.0283
     19 C          -4.0396   -0.6008   -1.8464 C.3     1  UNL1        0.0000
     20 C          -3.1951    1.3273    0.6258 C.ar    1  UNL1       -0.0382
     21 C          -1.0378    1.6651   -0.4477 C.ar    1  UNL1        0.1664
     22 C          -5.1239   -2.6137   -1.0398 C.3     1  UNL1       -0.0124
     23 C          -3.2362    2.6957    0.8905 C.ar    1  UNL1       -0.0546
     24 C          -1.0662    3.0201   -0.2116 C.ar    1  UNL1        0.1588
     25 C          -2.1862    3.5358    0.4579 C.ar    1  UNL1       -0.0162
     26 C           2.7929   -0.0945    0.4304 C.2     1  UNL1        0.2374
     27 C           4.1256   -0.7116    0.1810 C.2     1  UNL1        0.0069
     28 C           5.2052    0.0694    0.0539 C.2     1  UNL1        0.0274
     29 C           6.5253   -0.5517   -0.1937 C.2     1  UNL1        0.3318
     30 C           8.7892    0.0312   -0.5222 C.3     1  UNL1        0.0820
     31 H           0.0745   -1.1222   -1.3468 H       1  UNL1        0.0762
     32 H          -4.4983   -1.8011    1.3010 H       1  UNL1        0.0494
     33 H          -2.1111   -0.0507   -2.6356 H       1  UNL1        0.0288
     34 H          -2.2588   -1.7590   -2.2706 H       1  UNL1        0.0288
     35 H          -1.8629   -0.5558    2.3790 H       1  UNL1        0.0294
     36 H          -2.1504   -2.2877    2.4985 H       1  UNL1        0.0294
     37 H           0.4196    0.2203    1.3604 H       1  UNL1        0.0535
     38 H          -5.2207    0.6793    0.8925 H       1  UNL1        0.0329
     39 H          -4.1300    0.3013    2.2219 H       1  UNL1        0.0329
     40 H          -0.1053   -2.7728    1.1938 H       1  UNL1        0.0285
     41 H           0.2464   -1.8167    2.6185 H       1  UNL1        0.0285
     42 H          -4.4657   -0.9387   -2.8002 H       1  UNL1        0.0427
     43 H          -4.2843    0.4681   -1.8118 H       1  UNL1        0.0427
     44 H          -2.8213   -3.4442    0.6161 H       1  UNL1        0.2103
     45 H           2.0227   -2.0291    0.3911 H       1  UNL1        0.1494
     46 H          -5.8655   -2.5938   -1.8468 H       1  UNL1        0.0391
     47 H          -4.2982   -3.2497   -1.3705 H       1  UNL1        0.0391
     48 H          -5.6158   -3.0944   -0.1873 H       1  UNL1        0.0391
     49 H          -4.0686    3.1242    1.4421 H       1  UNL1        0.0622
     50 H          -2.2472    4.5993    0.6790 H       1  UNL1        0.0655
     51 H          -0.2527    4.7406   -0.3141 H       1  UNL1        0.2923
     52 H           4.1872   -1.7923    0.1087 H       1  UNL1        0.0671
     53 H           5.1535    1.1504    0.1251 H       1  UNL1        0.0690
     54 H           9.4189    0.9236   -0.5712 H       1  UNL1        0.0661
     55 H           9.1406   -0.6022    0.2980 H       1  UNL1        0.0661
     56 H           8.8565   -0.4994   -1.4768 H       1  UNL1        0.0661
@<TRIPOS>BOND
     1     1    11    1
     2     1    21    1
     3     2    10    1
     4     2    44    1
     5     3    24    1
     6     3    51    1
     7     4    26    2
     8     5    29    1
     9     5    30    1
    10     6    29    2
    11     7    12    1
    12     7    19    1
    13     7    22    1
    14     8    16    1
    15     8    26   am
    16     8    45    1
    17     9    10    1
    18     9    11    1
    19     9    13    1
    20     9    14    1
    21    10    12    1
    22    10    15    1
    23    11    16    1
    24    11    31    1
    25    12    17    1
    26    12    32    1
    27    13    19    1
    28    13    33    1
    29    13    34    1
    30    14    20   ar
    31    14    21   ar
    32    15    18    1
    33    15    35    1
    34    15    36    1
    35    16    18    1
    36    16    37    1
    37    17    20    1
    38    17    38    1
    39    17    39    1
    40    18    40    1
    41    18    41    1
    42    19    42    1
    43    19    43    1
    44    20    23   ar
    45    21    24   ar
    46    22    46    1
    47    22    47    1
    48    22    48    1
    49    23    25   ar
    50    23    49    1
    51    24    25   ar
    52    25    50    1
    53    26    27    1
    54    27    28    2
    55    27    52    1
    56    28    29    1
    57    28    53    1
    58    30    54    1
    59    30    55    1
    60    30    56    1
@<TRIPOS>MOLECULE
44293272
 61 68 0 0 0
SMALL
GASTEIGER

@<TRIPOS>ATOM
      1 O          -1.9905    1.9634   -1.3445 O.3     1  UNL1       -0.4764
      2 O          -1.0490   -2.4886   -0.4651 O.3     1  UNL1       -0.3860
      3 O           0.8503    0.6389   -1.9225 O.2     1  UNL1       -0.2928
      4 O          -3.9973    4.0761   -0.7460 O.3     1  UNL1       -0.5033
      5 N          -3.6623   -2.7045   -0.2060 N.3     1  UNL1       -0.2993
      6 C          -2.1546   -0.2720   -0.5782 C.3     1  UNL1        0.0746
      7 C          -1.6451   -1.4201    0.3070 C.3     1  UNL1        0.0962
      8 C          -2.9315   -2.0538    0.9264 C.3     1  UNL1        0.0438
      9 C           0.7239   -0.3691    0.3476 C.3     1  UNL1        0.0433
     10 C          -1.2182    0.9413   -0.7185 C.3     1  UNL1        0.1707
     11 C          -0.4964   -0.9302    1.2048 C.3     1  UNL1       -0.0084
     12 C          -2.8335   -0.8928   -1.8187 C.3     1  UNL1       -0.0238
     13 C          -3.1952    0.6010    0.0425 C.ar    1  UNL1        0.0141
     14 C           0.1894    0.4088   -0.9166 C.2     1  UNL1        0.1812
     15 C          -3.8031   -1.0491    1.7574 C.3     1  UNL1       -0.0089
     16 C          -3.9729   -1.8524   -1.3696 C.3     1  UNL1        0.0000
     17 C          -4.0322    0.2710    1.0795 C.ar    1  UNL1       -0.0382
     18 C           1.7146   -1.4878   -0.0900 C.3     1  UNL1       -0.0145
     19 C           1.5584    0.6141    1.2218 C.3     1  UNL1       -0.0145
     20 C          -3.1310    1.8643   -0.5433 C.ar    1  UNL1        0.1669
     21 C           3.0482   -0.8185    0.0331 C.ar    1  UNL1       -0.0426
     22 C           2.9591    0.3622    0.7632 C.ar    1  UNL1       -0.0426
     23 C          -4.8150   -3.4942    0.2083 C.3     1  UNL1       -0.0124
     24 C          -4.9403    1.2541    1.4651 C.ar    1  UNL1       -0.0546
     25 C          -4.0295    2.8406   -0.1955 C.ar    1  UNL1        0.1588
     26 C          -4.9534    2.5154    0.8137 C.ar    1  UNL1       -0.0162
     27 C           4.2649   -1.2648   -0.4582 C.ar    1  UNL1       -0.0506
     28 C           4.0841    1.1285    1.0232 C.ar    1  UNL1       -0.0506
     29 C           5.4207   -0.5023   -0.2190 C.ar    1  UNL1       -0.0176
     30 C           5.3295    0.7054    0.5286 C.ar    1  UNL1       -0.0176
     31 C           6.6720   -0.9139   -0.7039 C.ar    1  UNL1       -0.0540
     32 C           6.4930    1.4547    0.7629 C.ar    1  UNL1       -0.0540
     33 C           7.8160   -0.1533   -0.4605 C.ar    1  UNL1       -0.0612
     34 C           7.7268    1.0275    0.2709 C.ar    1  UNL1       -0.0612
     35 H          -2.6193   -2.8620    1.6016 H       1  UNL1        0.0494
     36 H          -1.0157    1.4175    0.2662 H       1  UNL1        0.0824
     37 H          -0.1373   -1.7471    1.8432 H       1  UNL1        0.0303
     38 H          -0.8657   -0.1525    1.8852 H       1  UNL1        0.0303
     39 H          -2.0959   -1.4460   -2.4131 H       1  UNL1        0.0288
     40 H          -3.2545   -0.1388   -2.4960 H       1  UNL1        0.0288
     41 H          -3.2728   -0.8457    2.6971 H       1  UNL1        0.0329
     42 H          -4.7628   -1.4976    2.0335 H       1  UNL1        0.0329
     43 H          -4.8728   -1.2574   -1.1664 H       1  UNL1        0.0427
     44 H          -4.2225   -2.4926   -2.2250 H       1  UNL1        0.0427
     45 H           1.5376   -1.8236   -1.1167 H       1  UNL1        0.0323
     46 H           1.6843   -2.3487    0.5862 H       1  UNL1        0.0323
     47 H           1.4834    0.3731    2.2882 H       1  UNL1        0.0323
     48 H           1.2752    1.6593    1.0614 H       1  UNL1        0.0323
     49 H          -0.8193   -3.2073    0.1487 H       1  UNL1        0.2103
     50 H          -4.5544   -4.1643    1.0348 H       1  UNL1        0.0391
     51 H          -5.1525   -4.1330   -0.6156 H       1  UNL1        0.0391
     52 H          -5.6615   -2.8725    0.5174 H       1  UNL1        0.0391
     53 H          -5.6348    1.0709    2.2806 H       1  UNL1        0.0622
     54 H          -5.6770    3.2580    1.1445 H       1  UNL1        0.0655
     55 H           4.3135   -2.1937   -1.0203 H       1  UNL1        0.0626
     56 H           3.9937    2.0426    1.6041 H       1  UNL1        0.0626
     57 H          -4.7047    4.6137   -0.3502 H       1  UNL1        0.2923
     58 H           6.7677   -1.8336   -1.2776 H       1  UNL1        0.0624
     59 H           6.4494    2.3808    1.3324 H       1  UNL1        0.0624
     60 H           8.7776   -0.4839   -0.8421 H       1  UNL1        0.0618
     61 H           8.6190    1.6177    0.4595 H       1  UNL1        0.0618
@<TRIPOS>BOND
     1     1    10    1
     2     1    20    1
     3     2     7    1
     4     2    49    1
     5     3    14    2
     6     4    25    1
     7     4    57    1
     8     5     8    1
     9     5    16    1
    10     5    23    1
    11     6     7    1
    12     6    10    1
    13     6    12    1
    14     6    13    1
    15     7     8    1
    16     7    11    1
    17     8    15    1
    18     8    35    1
    19     9    11    1
    20     9    14    1
    21     9    18    1
    22     9    19    1
    23    10    14    1
    24    10    36    1
    25    11    37    1
    26    11    38    1
    27    12    16    1
    28    12    39    1
    29    12    40    1
    30    13    17   ar
    31    13    20   ar
    32    15    17    1
    33    15    41    1
    34    15    42    1
    35    16    43    1
    36    16    44    1
    37    17    24   ar
    38    18    21    1
    39    18    45    1
    40    18    46    1
    41    19    22    1
    42    19    47    1
    43    19    48    1
    44    20    25   ar
    45    21    22   ar
    46    21    27   ar
    47    22    28   ar
    48    23    50    1
    49    23    51    1
    50    23    52    1
    51    24    26   ar
    52    24    53    1
    53    25    26   ar
    54    26    54    1
    55    27    29   ar
    56    27    55    1
    57    28    30   ar
    58    28    56    1
    59    29    30   ar
    60    29    31   ar
    61    30    32   ar
    62    31    33   ar
    63    31    58    1
    64    32    34   ar
    65    32    59    1
    66    33    34   ar
    67    33    60    1
    68    34    61    1
@<TRIPOS>MOLECULE
46781850
 43 47 0 0 0
SMALL
GASTEIGER

@<TRIPOS>ATOM
      1 O           2.0293    0.6113    1.1841 O.3     1  UNL1       -0.4813
      2 O          -2.2740    1.9531    0.2143 O.3     1  UNL1       -0.3860
      3 O           2.0581    3.4511    0.0613 O.3     1  UNL1       -0.3881
      4 O           3.9576   -1.4953    0.5585 O.3     1  UNL1       -0.5033
      5 N          -2.9462   -0.6845    0.5274 N.3     1  UNL1       -0.2993
      6 C          -0.3145    0.5419    0.5981 C.3     1  UNL1        0.0701
      7 C          -1.3946    0.9918   -0.3969 C.3     1  UNL1        0.0951
      8 C          -2.2491   -0.2798   -0.7226 C.3     1  UNL1        0.0438
      9 C           0.8842    1.4802    0.8402 C.3     1  UNL1        0.1384
     10 C          -0.9880    0.0655    1.9077 C.3     1  UNL1       -0.0242
     11 C           0.4661   -0.5943    0.0327 C.ar    1  UNL1        0.0137
     12 C          -0.8041    1.6899   -1.6332 C.3     1  UNL1       -0.0191
     13 C           1.3054    2.3232   -0.3869 C.3     1  UNL1        0.0930
     14 C          -1.3985   -1.4186   -1.3874 C.3     1  UNL1       -0.0089
     15 C           0.1350    2.8285   -1.2246 C.3     1  UNL1       -0.0207
     16 C          -2.0585   -1.0125    1.6482 C.3     1  UNL1        0.0000
     17 C          -0.0053   -1.5611   -0.8341 C.ar    1  UNL1       -0.0382
     18 C           1.7753   -0.5376    0.4689 C.ar    1  UNL1        0.1664
     19 C          -3.9586   -1.7153    0.3267 C.3     1  UNL1       -0.0124
     20 C           0.8927   -2.5621   -1.2039 C.ar    1  UNL1       -0.0546
     21 C           2.6723   -1.5241    0.1306 C.ar    1  UNL1        0.1588
     22 C           2.2155   -2.5510   -0.7089 C.ar    1  UNL1       -0.0162
     23 H          -3.0334    0.0136   -1.4339 H       1  UNL1        0.0494
     24 H           0.7079    2.1355    1.7020 H       1  UNL1        0.0769
     25 H          -0.2527   -0.3351    2.6178 H       1  UNL1        0.0288
     26 H          -1.4565    0.9228    2.4084 H       1  UNL1        0.0288
     27 H          -0.2538    0.9901   -2.2713 H       1  UNL1        0.0294
     28 H          -1.6103    2.1111   -2.2466 H       1  UNL1        0.0294
     29 H           1.9802    1.7472   -1.0320 H       1  UNL1        0.0630
     30 H          -1.3011   -1.1801   -2.4548 H       1  UNL1        0.0329
     31 H          -1.9143   -2.3825   -1.3365 H       1  UNL1        0.0329
     32 H           0.5166    3.3301   -2.1227 H       1  UNL1        0.0292
     33 H          -0.4150    3.6003   -0.6714 H       1  UNL1        0.0292
     34 H          -1.5721   -1.9825    1.4864 H       1  UNL1        0.0427
     35 H          -2.6520   -1.1188    2.5650 H       1  UNL1        0.0427
     36 H          -2.9959    2.1378   -0.4105 H       1  UNL1        0.2103
     37 H          -3.5280   -2.6987    0.1130 H       1  UNL1        0.0391
     38 H          -4.5812   -1.8122    1.2233 H       1  UNL1        0.0391
     39 H          -4.6347   -1.4461   -0.4921 H       1  UNL1        0.0391
     40 H           0.5862   -3.3503   -1.8864 H       1  UNL1        0.0622
     41 H           2.3389    3.9492   -0.7253 H       1  UNL1        0.2099
     42 H           2.8918   -3.3462   -1.0154 H       1  UNL1        0.0655
     43 H           4.4238   -2.2718    0.2039 H       1  UNL1        0.2923
@<TRIPOS>BOND
     1     1     9    1
     2     1    18    1
     3     2     7    1
     4     2    36    1
     5     3    13    1
     6     3    41    1
     7     4    21    1
     8     4    43    1
     9     5     8    1
    10     5    16    1
    11     5    19    1
    12     6     7    1
    13     6     9    1
    14     6    10    1
    15     6    11    1
    16     7     8    1
    17     7    12    1
    18     8    14    1
    19     8    23    1
    20     9    13    1
    21     9    24    1
    22    10    16    1
    23    10    25    1
    24    10    26    1
    25    11    17   ar
    26    11    18   ar
    27    12    15    1
    28    12    27    1
    29    12    28    1
    30    13    15    1
    31    13    29    1
    32    14    17    1
    33    14    30    1
    34    14    31    1
    35    15    32    1
    36    15    33    1
    37    16    34    1
    38    16    35    1
    39    17    20   ar
    40    18    21   ar
    41    19    37    1
    42    19    38    1
    43    19    39    1
    44    20    22   ar
    45    20    40    1
    46    21    22   ar
    47    22    42    1
@<TRIPOS>MOLECULE
91697075
 65 69 0 0 0
SMALL
GASTEIGER

@<TRIPOS>ATOM
      1 SI          3.9501    1.5481   -0.4369 Si      1  UNL1        0.0000
      2 SI         -5.0969    0.6102   -0.1607 Si      1  UNL1        0.0000
      3 O           2.8174    0.7609    0.5035 O.3     1  UNL1        0.0000
      4 O          -1.5912    0.6580    1.3636 O.3     1  UNL1        0.0000
      5 O          -0.1397    3.3691    0.9045 O.2     1  UNL1        0.0000
      6 O          -4.0595   -0.5672    0.4351 O.3     1  UNL1        0.0000
      7 N           2.8768   -2.0241    0.6020 N.3     1  UNL1        0.0000
      8 C           0.6387   -0.1989    0.8896 C.3     1  UNL1        0.0000
      9 C           1.7506    0.0464   -0.1384 C.3     1  UNL1        0.0000
     10 C           2.2567   -1.3749   -0.5799 C.3     1  UNL1        0.0000
     11 C          -0.1808    1.0151    1.3474 C.3     1  UNL1        0.0000
     12 C           1.1816   -0.9927    2.1016 C.3     1  UNL1        0.0000
     13 C          -0.4465   -0.9566    0.2157 C.ar    1  UNL1        0.0000
     14 C           1.3054    0.9191   -1.3344 C.3     1  UNL1        0.0000
     15 C           1.1161   -2.2315   -1.2496 C.3     1  UNL1        0.0000
     16 C           1.9371   -2.2673    1.6985 C.3     1  UNL1        0.0000
     17 C          -0.2744   -1.9467   -0.7356 C.ar    1  UNL1        0.0000
     18 C           0.2774    2.0068   -1.0134 C.3     1  UNL1        0.0000
     19 C           0.0162    2.2313    0.4579 C.2     1  UNL1        0.0000
     20 C          -1.6805   -0.4591    0.5724 C.ar    1  UNL1        0.0000
     21 C           3.6408   -3.2233    0.2746 C.3     1  UNL1        0.0000
     22 C          -1.4305   -2.5385   -1.2445 C.ar    1  UNL1        0.0000
     23 C          -2.8341   -1.0310    0.0842 C.ar    1  UNL1        0.0000
     24 C          -2.7006   -2.0944   -0.8203 C.ar    1  UNL1        0.0000
     25 C           4.3713    0.4783   -1.9296 C.3     1  UNL1        0.0000
     26 C           5.5393    1.8630    0.5191 C.3     1  UNL1        0.0000
     27 C           3.2952    3.1944   -1.0684 C.3     1  UNL1        0.0000
     28 C          -6.6861    0.6908    0.8406 C.3     1  UNL1        0.0000
     29 C          -5.5660    0.2095   -1.9444 C.3     1  UNL1        0.0000
     30 C          -4.2839    2.3052   -0.1541 C.3     1  UNL1        0.0000
     31 H           3.0342   -1.3241   -1.3310 H       1  UNL1        0.0000
     32 H           0.1001    1.3184    2.3639 H       1  UNL1        0.0000
     33 H           0.3695   -1.2692    2.7871 H       1  UNL1        0.0000
     34 H           1.8624   -0.3502    2.6762 H       1  UNL1        0.0000
     35 H           0.7413    0.2527   -2.0040 H       1  UNL1        0.0000
     36 H           2.0051    1.2899   -2.0711 H       1  UNL1        0.0000
     37 H           1.3158   -3.3045   -1.1685 H       1  UNL1        0.0000
     38 H           1.1191   -2.0024   -2.3239 H       1  UNL1        0.0000
     39 H           2.4833   -2.6249    2.5804 H       1  UNL1        0.0000
     40 H           1.2229   -3.0585    1.4393 H       1  UNL1        0.0000
     41 H          -0.6877    1.7568   -1.4722 H       1  UNL1        0.0000
     42 H           0.5804    2.9595   -1.4593 H       1  UNL1        0.0000
     43 H           4.2226   -3.5482    1.1447 H       1  UNL1        0.0000
     44 H           3.0102   -4.0622   -0.0354 H       1  UNL1        0.0000
     45 H           4.3656   -3.0209   -0.5215 H       1  UNL1        0.0000
     46 H          -1.3629   -3.3237   -1.9926 H       1  UNL1        0.0000
     47 H          -3.5876   -2.5671   -1.2362 H       1  UNL1        0.0000
     48 H           5.0962    1.0379   -2.5337 H       1  UNL1        0.0000
     49 H           4.8944   -0.4290   -1.6106 H       1  UNL1        0.0000
     50 H           3.5687    0.2128   -2.6179 H       1  UNL1        0.0000
     51 H           6.2806    2.3573   -0.1156 H       1  UNL1        0.0000
     52 H           5.9645    0.9203    0.8758 H       1  UNL1        0.0000
     53 H           5.3451    2.5024    1.3851 H       1  UNL1        0.0000
     54 H           4.1326    3.8977   -1.1410 H       1  UNL1        0.0000
     55 H           2.8537    3.1534   -2.0663 H       1  UNL1        0.0000
     56 H           2.5812    3.6285   -0.3639 H       1  UNL1        0.0000
     57 H          -6.4701    0.9440    1.8827 H       1  UNL1        0.0000
     58 H          -7.3603    1.4504    0.4343 H       1  UNL1        0.0000
     59 H          -7.2018   -0.2737    0.8209 H       1  UNL1        0.0000
     60 H          -4.6754    0.1904   -2.5792 H       1  UNL1        0.0000
     61 H          -6.0521   -0.7688   -2.0004 H       1  UNL1        0.0000
     62 H          -6.2552    0.9623   -2.3377 H       1  UNL1        0.0000
     63 H          -4.0015    2.5917    0.8632 H       1  UNL1        0.0000
     64 H          -3.3817    2.3025   -0.7729 H       1  UNL1        0.0000
     65 H          -4.9680    3.0627   -0.5476 H       1  UNL1        0.0000
@<TRIPOS>BOND
     1     1     3    1
     2     1    25    1
     3     1    26    1
     4     1    27    1
     5     2     6    1
     6     2    28    1
     7     2    29    1
     8     2    30    1
     9     3     9    1
    10     4    11    1
    11     4    20    1
    12     5    19    2
    13     6    23    1
    14     7    10    1
    15     7    16    1
    16     7    21    1
    17     8     9    1
    18     8    11    1
    19     8    12    1
    20     8    13    1
    21     9    10    1
    22     9    14    1
    23    10    15    1
    24    10    31    1
    25    11    19    1
    26    11    32    1
    27    12    16    1
    28    12    33    1
    29    12    34    1
    30    13    17   ar
    31    13    20   ar
    32    14    18    1
    33    14    35    1
    34    14    36    1
    35    15    17    1
    36    15    37    1
    37    15    38    1
    38    16    39    1
    39    16    40    1
    40    17    22   ar
    41    18    19    1
    42    18    41    1
    43    18    42    1
    44    20    23   ar
    45    21    43    1
    46    21    44    1
    47    21    45    1
    48    22    24   ar
    49    22    46    1
    50    23    24   ar
    51    24    47    1
    52    25    48    1
    53    25    49    1
    54    25    50    1
    55    26    51    1
    56    26    52    1
    57    26    53    1
    58    27    54    1
    59    27    55    1
    60    27    56    1
    61    28    57    1
    62    28    58    1
    63    28    59    1
    64    29    60    1
    65    29    61    1
    66    29    62    1
    67    30    63    1
    68    30    64    1
    69    30    65    1
@<TRIPOS>MOLECULE
5486890
 50 55 0 0 0
SMALL
GASTEIGER

@<TRIPOS>ATOM
      1 O          -1.1811   -0.4191   -1.4404 O.3     1  UNL1       -0.4799
      2 O           1.9994    2.6669   -0.2109 O.3     1  UNL1       -0.3860
      3 O          -1.9308    0.4911    1.0552 O.3     1  UNL1       -0.4507
      4 O          -2.0238   -3.1746   -0.9316 O.3     1  UNL1       -0.5033
      5 O          -3.8490   -0.7591    1.2946 O.2     1  UNL1       -0.2453
      6 N           3.7818    0.5555   -0.3651 N.3     1  UNL1       -0.2993
      7 C           0.8918    0.5384   -0.6593 C.3     1  UNL1        0.0714
      8 C           1.6015    1.4155    0.3805 C.3     1  UNL1        0.0951
      9 C          -0.5774    0.8572   -1.0149 C.3     1  UNL1        0.1525
     10 C           2.8846    0.6326    0.8187 C.3     1  UNL1        0.0438
     11 C          -1.4329    1.5020    0.1365 C.3     1  UNL1        0.1554
     12 C           1.8015    0.3874   -1.9060 C.3     1  UNL1       -0.0241
     13 C           0.6727    1.8192    1.5318 C.3     1  UNL1       -0.0178
     14 C           0.6418   -0.8266   -0.1215 C.ar    1  UNL1        0.0138
     15 C          -0.6045    2.4793    0.9847 C.3     1  UNL1       -0.0062
     16 C           2.5460   -0.7546    1.4700 C.3     1  UNL1       -0.0089
     17 C           3.2091   -0.1227   -1.5338 C.3     1  UNL1        0.0000
     18 C           1.4110   -1.4929    0.8114 C.ar    1  UNL1       -0.0382
     19 C          -0.5075   -1.3516   -0.6801 C.ar    1  UNL1        0.1665
     20 C          -2.7020    2.1716   -0.3972 C.3     1  UNL1        0.0222
     21 C           5.1164    0.0545   -0.0564 C.3     1  UNL1       -0.0124
     22 C           1.0164   -2.7914    1.1319 C.ar    1  UNL1       -0.0546
     23 C          -3.6952    1.0821   -0.2570 C.2     1  UNL1        0.0334
     24 C          -0.9034   -2.6370   -0.3925 C.ar    1  UNL1        0.1588
     25 C          -3.2213    0.1454    0.7755 C.2     1  UNL1        0.3354
     26 C          -0.1220   -3.3623    0.5194 C.ar    1  UNL1       -0.0162
     27 C          -4.8229    0.8931   -0.9436 C.2     1  UNL1       -0.0886
     28 H          -0.5892    1.5324   -1.8803 H       1  UNL1        0.0784
     29 H           3.4093    1.2417    1.5673 H       1  UNL1        0.0494
     30 H           1.8951    1.3576   -2.4107 H       1  UNL1        0.0288
     31 H           1.3666   -0.2959   -2.6473 H       1  UNL1        0.0288
     32 H           1.1811    2.5462    2.1780 H       1  UNL1        0.0295
     33 H           0.4069    0.9662    2.1647 H       1  UNL1        0.0295
     34 H          -1.1967    2.8052    1.8502 H       1  UNL1        0.0306
     35 H          -0.3685    3.3825    0.4112 H       1  UNL1        0.0306
     36 H           2.2524   -0.5704    2.5118 H       1  UNL1        0.0329
     37 H           3.4296   -1.3992    1.5109 H       1  UNL1        0.0329
     38 H           3.1757   -1.2076   -1.3735 H       1  UNL1        0.0427
     39 H           3.8601    0.0360   -2.4027 H       1  UNL1        0.0427
     40 H          -2.5952    2.5398   -1.4217 H       1  UNL1        0.0355
     41 H          -3.0091    3.0111    0.2381 H       1  UNL1        0.0355
     42 H           1.2980    2.9632   -0.8145 H       1  UNL1        0.2103
     43 H           5.7895    0.2259   -0.9040 H       1  UNL1        0.0391
     44 H           5.1269   -1.0173    0.1657 H       1  UNL1        0.0391
     45 H           5.5486    0.5906    0.7955 H       1  UNL1        0.0391
     46 H           1.5743   -3.3705    1.8628 H       1  UNL1        0.0622
     47 H          -0.4031   -4.3778    0.7907 H       1  UNL1        0.0655
     48 H          -5.1282    1.5975   -1.7101 H       1  UNL1        0.0540
     49 H          -5.4656    0.0385   -0.7624 H       1  UNL1        0.0540
     50 H          -2.1310   -4.0804   -0.5939 H       1  UNL1        0.2923
@<TRIPOS>BOND
     1     1     9    1
     2     1    19    1
     3     2     8    1
     4     2    42    1
     5     3    11    1
     6     3    25    1
     7     4    24    1
     8     4    50    1
     9     5    25    2
    10     6    10    1
    11     6    17    1
    12     6    21    1
    13     7     8    1
    14     7     9    1
    15     7    12    1
    16     7    14    1
    17     8    10    1
    18     8    13    1
    19     9    11    1
    20     9    28    1
    21    10    16    1
    22    10    29    1
    23    11    15    1
    24    11    20    1
    25    12    17    1
    26    12    30    1
    27    12    31    1
    28    13    15    1
    29    13    32    1
    30    13    33    1
    31    14    18   ar
    32    14    19   ar
    33    15    34    1
    34    15    35    1
    35    16    18    1
    36    16    36    1
    37    16    37    1
    38    17    38    1
    39    17    39    1
    40    18    22   ar
    41    19    24   ar
    42    20    23    1
    43    20    40    1
    44    20    41    1
    45    21    43    1
    46    21    44    1
    47    21    45    1
    48    22    26   ar
    49    22    46    1
    50    23    25    1
    51    23    27    2
    52    24    26   ar
    53    26    47    1
    54    27    48    1
    55    27    49    1
@<TRIPOS>MOLECULE
9576842
 56 61 0 0 0
SMALL
GASTEIGER

@<TRIPOS>ATOM
      1 O          -0.1346    0.0045    1.2963 O.3     1  UNL1       -0.4780
      2 O          -3.9040    2.3254    0.1654 O.3     1  UNL1       -0.3860
      3 O           1.3314   -2.4320    0.6363 O.3     1  UNL1       -0.5033
      4 O           7.3505   -1.0651    0.5486 O.co2   1  UNL1       -0.5760
      5 O           7.2592   -0.1635   -1.4509 O.2     1  UNL1        0.0414
      6 N          -5.2436   -0.0859    0.3270 N.3     1  UNL1       -0.2993
      7 N           0.8494    2.1041   -0.2015 N.2     1  UNL1       -0.1877
      8 N           1.5327    1.4079    0.7247 N.pl3   1  UNL1       -0.2377
      9 N           6.7413   -0.4167   -0.3364 N.pl3   1  UNL1        0.0796
     10 C          -2.4073    0.4711    0.6133 C.3     1  UNL1        0.0730
     11 C          -3.2742    1.1828   -0.4372 C.3     1  UNL1        0.0956
     12 C          -4.3841    0.1609   -0.8600 C.3     1  UNL1        0.0438
     13 C          -1.0556    1.1009    0.9944 C.3     1  UNL1        0.1520
     14 C          -3.2681    0.1269    1.8517 C.3     1  UNL1       -0.0239
     15 C          -1.8643   -0.7903    0.0348 C.ar    1  UNL1        0.0141
     16 C          -2.4332    1.7229   -1.6093 C.3     1  UNL1       -0.0163
     17 C          -3.7841   -1.1365   -1.5077 C.3     1  UNL1       -0.0089
     18 C          -4.5397   -0.6575    1.4793 C.3     1  UNL1        0.0000
     19 C          -2.4878   -1.6000   -0.8960 C.ar    1  UNL1       -0.0382
     20 C          -1.3292    2.6497   -1.1037 C.3     1  UNL1       -0.0065
     21 C          -0.4313    1.9343   -0.1247 C.2     1  UNL1        0.0780
     22 C          -0.5936   -1.0292    0.5154 C.ar    1  UNL1        0.1668
     23 C          -6.4629   -0.8264    0.0228 C.3     1  UNL1       -0.0124
     24 C          -1.8077   -2.7563   -1.2785 C.ar    1  UNL1       -0.0546
     25 C           0.0890   -2.1707    0.1625 C.ar    1  UNL1        0.1588
     26 C          -0.5364   -3.0459   -0.7373 C.ar    1  UNL1       -0.0162
     27 C           2.8335    0.9519    0.4596 C.ar    1  UNL1        0.0487
     28 C           3.5361    0.2270    1.4267 C.ar    1  UNL1       -0.0327
     29 C           3.4358    1.2200   -0.7735 C.ar    1  UNL1       -0.0327
     30 C           4.8289   -0.2258    1.1634 C.ar    1  UNL1        0.0174
     31 C           4.7286    0.7672   -1.0369 C.ar    1  UNL1        0.0174
     32 C           5.4252    0.0442   -0.0684 C.ar    1  UNL1        0.2733
     33 H          -5.0222    0.6495   -1.6090 H       1  UNL1        0.0494
     34 H          -1.1441    1.7428    1.8793 H       1  UNL1        0.0807
     35 H          -2.6984   -0.4588    2.5851 H       1  UNL1        0.0288
     36 H          -3.5574    1.0545    2.3629 H       1  UNL1        0.0288
     37 H          -1.9825    0.9138   -2.1938 H       1  UNL1        0.0297
     38 H          -3.0738    2.2925   -2.2938 H       1  UNL1        0.0297
     39 H          -3.5820   -0.9139   -2.5640 H       1  UNL1        0.0329
     40 H          -4.5070   -1.9581   -1.5016 H       1  UNL1        0.0329
     41 H          -4.2853   -1.7091    1.2976 H       1  UNL1        0.0427
     42 H          -5.2026   -0.6508    2.3537 H       1  UNL1        0.0427
     43 H          -1.7473    3.5286   -0.6011 H       1  UNL1        0.0328
     44 H          -0.7325    3.0077   -1.9500 H       1  UNL1        0.0328
     45 H          -4.5176    2.7040   -0.4872 H       1  UNL1        0.2103
     46 H          -6.2750   -1.8791   -0.2105 H       1  UNL1        0.0391
     47 H          -7.1484   -0.7918    0.8772 H       1  UNL1        0.0391
     48 H          -6.9960   -0.3732   -0.8200 H       1  UNL1        0.0391
     49 H          -2.2420   -3.4329   -2.0095 H       1  UNL1        0.0622
     50 H          -0.0248   -3.9528   -1.0523 H       1  UNL1        0.0655
     51 H           1.5641   -1.7384    1.2770 H       1  UNL1        0.2923
     52 H           1.1758    1.2788    1.6641 H       1  UNL1        0.1744
     53 H           3.0831    0.0096    2.3908 H       1  UNL1        0.0639
     54 H           2.9229    1.7796   -1.5513 H       1  UNL1        0.0639
     55 H           5.3411   -0.7861    1.9414 H       1  UNL1        0.0686
     56 H           5.1616    0.9959   -2.0074 H       1  UNL1        0.0686
@<TRIPOS>UNITY_ATOM_ATTR
4 1
charge -1
9 1
charge 1
@<TRIPOS>BOND
     1     1    13    1
     2     1    22    1
     3     2    11    1
     4     2    45    1
     5     3    25    1
     6     3    51    1
     7     4     9    1
     8     5     9    2
     9     6    12    1
    10     6    18    1
    11     6    23    1
    12     7     8    1
    13     7    21    2
    14     8    27    1
    15     8    52    1
    16     9    32    1
    17    10    11    1
    18    10    13    1
    19    10    14    1
    20    10    15    1
    21    11    12    1
    22    11    16    1
    23    12    17    1
    24    12    33    1
    25    13    21    1
    26    13    34    1
    27    14    18    1
    28    14    35    1
    29    14    36    1
    30    15    19   ar
    31    15    22   ar
    32    16    20    1
    33    16    37    1
    34    16    38    1
    35    17    19    1
    36    17    39    1
    37    17    40    1
    38    18    41    1
    39    18    42    1
    40    19    24   ar
    41    20    21    1
    42    20    43    1
    43    20    44    1
    44    22    25   ar
    45    23    46    1
    46    23    47    1
    47    23    48    1
    48    24    26   ar
    49    24    49    1
    50    25    26   ar
    51    26    50    1
    52    27    28   ar
    53    27    29   ar
    54    28    30   ar
    55    28    53    1
    56    29    31   ar
    57    29    54    1
    58    30    32   ar
    59    30    55    1
    60    31    32   ar
    61    31    56    1
@<TRIPOS>MOLECULE
9577748
 44 48 0 0 0
SMALL
GASTEIGER

@<TRIPOS>ATOM
      1 O          -1.9456   -0.4838   -1.2207 O.3     1  UNL1       -0.4780
      2 O           1.1586    2.6236   -0.0852 O.3     1  UNL1       -0.3860
      3 O          -2.7952   -3.1844   -0.5562 O.3     1  UNL1       -0.5033
      4 N           3.1145    0.6980   -0.4064 N.3     1  UNL1       -0.2993
      5 N          -2.8401    2.4478   -0.3987 N.2     1  UNL1       -0.1951
      6 N          -3.3947    3.0945    0.6411 N.pl3   1  UNL1       -0.2825
      7 C           0.2340    0.4532   -0.6725 C.3     1  UNL1        0.0730
      8 C           0.8710    1.3132    0.4313 C.3     1  UNL1        0.0956
      9 C           2.2357    0.6199    0.7883 C.3     1  UNL1        0.0438
     10 C          -1.2164    0.7681   -1.0699 C.3     1  UNL1        0.1520
     11 C           1.1554    0.3935   -1.9131 C.3     1  UNL1       -0.0239
     12 C           0.0173   -0.9118   -0.1257 C.ar    1  UNL1        0.0141
     13 C          -0.0302    1.5309    1.6735 C.3     1  UNL1       -0.0163
     14 C           2.0359   -0.8430    1.3341 C.3     1  UNL1       -0.0089
     15 C           2.5945   -0.0214   -1.5714 C.3     1  UNL1        0.0000
     16 C           0.8494   -1.5753    0.7581 C.ar    1  UNL1       -0.0382
     17 C          -1.5397    1.4524    1.4225 C.3     1  UNL1       -0.0065
     18 C          -1.9135    1.6250   -0.0288 C.2     1  UNL1        0.0773
     19 C          -1.2052   -1.4065   -0.5254 C.ar    1  UNL1        0.1668
     20 C           4.5037    0.3451   -0.1338 C.3     1  UNL1       -0.0124
     21 C           0.4624   -2.8585    1.1453 C.ar    1  UNL1       -0.0546
     22 C          -1.6042   -2.6724   -0.1586 C.ar    1  UNL1        0.1588
     23 C          -0.7476   -3.4082    0.6723 C.ar    1  UNL1       -0.0162
     24 H           2.7200    1.2176    1.5727 H       1  UNL1        0.0494
     25 H          -1.2668    1.2977   -2.0294 H       1  UNL1        0.0807
     26 H           1.1748    1.3771   -2.4009 H       1  UNL1        0.0288
     27 H           0.7607   -0.3068   -2.6614 H       1  UNL1        0.0288
     28 H           0.1920    2.5189    2.0997 H       1  UNL1        0.0297
     29 H           0.2050    0.8161    2.4699 H       1  UNL1        0.0297
     30 H           1.8793   -0.7711    2.4185 H       1  UNL1        0.0329
     31 H           2.9360   -1.4506    1.1992 H       1  UNL1        0.0329
     32 H           2.6436   -1.1066   -1.4190 H       1  UNL1        0.0427
     33 H           3.2204    0.1931   -2.4468 H       1  UNL1        0.0427
     34 H          -2.0184    2.1348    2.1279 H       1  UNL1        0.0328
     35 H          -1.8937    0.4538    1.7106 H       1  UNL1        0.0328
     36 H           1.9387    2.5664   -0.6613 H       1  UNL1        0.2103
     37 H           4.6437   -0.7222    0.0630 H       1  UNL1        0.0391
     38 H           4.8892    0.9095    0.7222 H       1  UNL1        0.0391
     39 H           5.1348    0.6115   -0.9893 H       1  UNL1        0.0391
     40 H           1.0747   -3.4327    1.8355 H       1  UNL1        0.0622
     41 H          -1.0327   -4.4079    0.9929 H       1  UNL1        0.0655
     42 H          -3.2420   -2.5232   -1.1130 H       1  UNL1        0.2923
     43 H          -3.9771    2.4484    1.1753 H       1  UNL1        0.1641
     44 H          -4.0359    3.8006    0.2810 H       1  UNL1        0.1641
@<TRIPOS>BOND
     1     1    10    1
     2     1    19    1
     3     2     8    1
     4     2    36    1
     5     3    22    1
     6     3    42    1
     7     4     9    1
     8     4    15    1
     9     4    20    1
    10     5     6    1
    11     5    18    2
    12     6    43    1
    13     6    44    1
    14     7     8    1
    15     7    10    1
    16     7    11    1
    17     7    12    1
    18     8     9    1
    19     8    13    1
    20     9    14    1
    21     9    24    1
    22    10    18    1
    23    10    25    1
    24    11    15    1
    25    11    26    1
    26    11    27    1
    27    12    16   ar
    28    12    19   ar
    29    13    17    1
    30    13    28    1
    31    13    29    1
    32    14    16    1
    33    14    30    1
    34    14    31    1
    35    15    32    1
    36    15    33    1
    37    16    21   ar
    38    17    18    1
    39    17    34    1
    40    17    35    1
    41    19    22   ar
    42    20    37    1
    43    20    38    1
    44    20    39    1
    45    21    23   ar
    46    21    40    1
    47    22    23   ar
    48    23    41    1
@<TRIPOS>MOLECULE
44293247
 44 49 0 0 0
SMALL
GASTEIGER

@<TRIPOS>ATOM
      1 O           1.9286   -0.0077   -1.3025 O.3     1  UNL1       -0.4806
      2 O          -1.8764   -2.3448   -0.2659 O.3     1  UNL1       -0.3860
      3 O           3.3483    2.4559   -0.6389 O.3     1  UNL1       -0.5033
      4 N           2.8521   -2.7259   -0.1814 N.3     1  UNL1       -0.2307
      5 N           2.9291   -1.6448    0.7195 N.3     1  UNL1       -0.2307
      6 N          -3.1863    0.0742   -0.4431 N.3     1  UNL1       -0.2993
      7 C          -0.3437   -0.5040   -0.6449 C.3     1  UNL1        0.0708
      8 C          -1.2517   -1.2157    0.3687 C.3     1  UNL1        0.0951
      9 C           1.0276   -1.1339   -0.9831 C.3     1  UNL1        0.1462
     10 C           1.6213   -1.9855    0.1456 C.3     1  UNL1        0.1338
     11 C          -2.3652   -0.1897    0.7673 C.3     1  UNL1        0.0438
     12 C          -0.4519   -1.7799    1.5542 C.3     1  UNL1       -0.0185
     13 C           0.6535   -2.7116    1.0499 C.3     1  UNL1       -0.0128
     14 C          -1.1654   -0.1547   -1.9108 C.3     1  UNL1       -0.0242
     15 C           0.1766    0.7617   -0.0559 C.ar    1  UNL1        0.0138
     16 C          -1.7756    1.0950    1.4468 C.3     1  UNL1       -0.0089
     17 C          -2.4439    0.6370   -1.5754 C.3     1  UNL1        0.0000
     18 C          -0.4714    1.5679    0.8609 C.ar    1  UNL1       -0.0382
     19 C           1.4455    1.0220   -0.5290 C.ar    1  UNL1        0.1664
     20 C           0.1872    2.7352    1.2470 C.ar    1  UNL1       -0.0546
     21 C          -4.4037    0.8307   -0.1716 C.3     1  UNL1       -0.0124
     22 C           2.1063    2.1759   -0.1748 C.ar    1  UNL1        0.1588
     23 C           1.4593    3.0429    0.7175 C.ar    1  UNL1       -0.0162
     24 H           0.9489   -1.7568   -1.8833 H       1  UNL1        0.0776
     25 H          -3.0297   -0.6803    1.4917 H       1  UNL1        0.0494
     26 H          -1.1161   -2.3556    2.2106 H       1  UNL1        0.0295
     27 H          -0.0069   -0.9861    2.1636 H       1  UNL1        0.0295
     28 H           1.1690   -3.1366    1.9215 H       1  UNL1        0.0299
     29 H           0.2195   -3.5604    0.5071 H       1  UNL1        0.0299
     30 H          -1.4439   -1.0803   -2.4314 H       1  UNL1        0.0288
     31 H          -0.5719    0.4283   -2.6272 H       1  UNL1        0.0288
     32 H          -1.5889    0.8555    2.5021 H       1  UNL1        0.0329
     33 H          -2.4994    1.9159    1.4433 H       1  UNL1        0.0329
     34 H           2.8991   -3.5968    0.3459 H       1  UNL1        0.1428
     35 H           3.3367   -0.8468    0.2350 H       1  UNL1        0.1428
     36 H          -2.1883    1.6875   -1.3886 H       1  UNL1        0.0427
     37 H          -3.0811    0.6330   -2.4687 H       1  UNL1        0.0427
     38 H          -2.5137   -2.7235    0.3635 H       1  UNL1        0.2103
     39 H          -0.2667    3.4093    1.9684 H       1  UNL1        0.0622
     40 H          -4.9658    0.3841    0.6557 H       1  UNL1        0.0391
     41 H          -5.0656    0.8063   -1.0447 H       1  UNL1        0.0391
     42 H          -4.2075    1.8805    0.0681 H       1  UNL1        0.0391
     43 H           1.9478    3.9607    1.0375 H       1  UNL1        0.0655
     44 H           3.6384    3.3061   -0.2658 H       1  UNL1        0.2923
@<TRIPOS>BOND
     1     1     9    1
     2     1    19    1
     3     2     8    1
     4     2    38    1
     5     3    22    1
     6     3    44    1
     7     4     5    1
     8     4    10    1
     9     4    34    1
    10     5    10    1
    11     5    35    1
    12     6    11    1
    13     6    17    1
    14     6    21    1
    15     7     8    1
    16     7     9    1
    17     7    14    1
    18     7    15    1
    19     8    11    1
    20     8    12    1
    21     9    10    1
    22     9    24    1
    23    10    13    1
    24    11    16    1
    25    11    25    1
    26    12    13    1
    27    12    26    1
    28    12    27    1
    29    13    28    1
    30    13    29    1
    31    14    17    1
    32    14    30    1
    33    14    31    1
    34    15    18   ar
    35    15    19   ar
    36    16    18    1
    37    16    32    1
    38    16    33    1
    39    17    36    1
    40    17    37    1
    41    18    20   ar
    42    19    22   ar
    43    20    23   ar
    44    20    39    1
    45    21    40    1
    46    21    41    1
    47    21    42    1
    48    22    23   ar
    49    23    43    1
@<TRIPOS>MOLECULE
44293268
 59 65 0 0 0
SMALL
GASTEIGER

@<TRIPOS>ATOM
      1 O          -2.1421   -1.5973    1.7585 O.3     1  UNL1       -0.4764
      2 O           0.3757    2.0843    0.7105 O.3     1  UNL1       -0.3860
      3 O           0.1134   -2.7780    1.0261 O.2     1  UNL1       -0.2928
      4 O          -4.2670   -3.2993    0.6865 O.3     1  UNL1       -0.5033
      5 O           4.9183    1.0354    1.4349 O.3     1  UNL1       -0.4948
      6 N          -1.9566    3.2026   -0.1645 N.3     1  UNL1       -0.2993
      7 C          -1.4654    0.5118    0.8105 C.3     1  UNL1        0.0746
      8 C          -0.4627    1.2399   -0.0894 C.3     1  UNL1        0.0962
      9 C          -1.3150    2.1725   -1.0244 C.3     1  UNL1        0.0438
     10 C           1.1446   -0.8218    0.0423 C.3     1  UNL1        0.0434
     11 C          -0.9808   -0.7142    1.5928 C.3     1  UNL1        0.1707
     12 C           0.4633    0.2649   -0.8441 C.3     1  UNL1       -0.0084
     13 C          -2.2007    1.5425    1.7017 C.3     1  UNL1       -0.0238
     14 C          -2.4789   -0.2032   -0.0168 C.ar    1  UNL1        0.0141
     15 C           0.0835   -1.5542    0.8729 C.2     1  UNL1        0.1812
     16 C          -2.3155    1.3715   -1.9295 C.3     1  UNL1       -0.0089
     17 C          -2.8469    2.6689    0.8716 C.3     1  UNL1        0.0000
     18 C          -2.9499    0.1846   -1.2557 C.ar    1  UNL1       -0.0382
     19 C           2.2517   -0.2921    0.9996 C.3     1  UNL1       -0.0111
     20 C           1.9016   -1.8175   -0.9047 C.3     1  UNL1       -0.0144
     21 C          -2.8749   -1.3643    0.6167 C.ar    1  UNL1        0.1669
     22 C           3.4886   -0.3985    0.1642 C.ar    1  UNL1       -0.0016
     23 C           3.2904   -1.2601   -0.9151 C.ar    1  UNL1       -0.0398
     24 C          -2.5902    4.2821   -0.9131 C.3     1  UNL1       -0.0124
     25 C          -3.9322   -0.6201   -1.8326 C.ar    1  UNL1       -0.0546
     26 C          -3.8545   -2.1632    0.0745 C.ar    1  UNL1        0.1588
     27 C          -4.3915   -1.7750   -1.1618 C.ar    1  UNL1       -0.0162
     28 C           4.7168    0.2038    0.3811 C.ar    1  UNL1        0.1235
     29 C           4.3146   -1.5401   -1.8043 C.ar    1  UNL1       -0.0581
     30 C           5.7531   -0.0621   -0.5161 C.ar    1  UNL1       -0.0197
     31 C           5.5533   -0.9284   -1.6019 C.ar    1  UNL1       -0.0580
     32 C           4.6557    2.4245    1.2294 C.3     1  UNL1        0.0788
     33 H          -0.6197    2.7095   -1.6841 H       1  UNL1        0.0494
     34 H          -0.5912   -0.4503    2.5822 H       1  UNL1        0.0824
     35 H           1.2388    0.8422   -1.3650 H       1  UNL1        0.0303
     36 H          -0.1097   -0.2489   -1.6251 H       1  UNL1        0.0303
     37 H          -1.4906    1.9826    2.4141 H       1  UNL1        0.0288
     38 H          -2.9810    1.0659    2.3096 H       1  UNL1        0.0288
     39 H          -1.7534    0.9939   -2.7937 H       1  UNL1        0.0329
     40 H          -3.0954    2.0232   -2.3354 H       1  UNL1        0.0329
     41 H          -3.7840    2.3085    0.4292 H       1  UNL1        0.0427
     42 H          -3.1263    3.4734    1.5635 H       1  UNL1        0.0427
     43 H           2.3603   -0.9365    1.8808 H       1  UNL1        0.0324
     44 H           2.0892    0.7261    1.3458 H       1  UNL1        0.0324
     45 H           1.4738   -1.8433   -1.9122 H       1  UNL1        0.0323
     46 H           1.9377   -2.8395   -0.5135 H       1  UNL1        0.0323
     47 H           0.9388    2.6014    0.1095 H       1  UNL1        0.2103
     48 H          -1.9055    4.6928   -1.6631 H       1  UNL1        0.0391
     49 H          -2.8448    5.1089   -0.2403 H       1  UNL1        0.0391
     50 H          -3.5097    3.9679   -1.4167 H       1  UNL1        0.0391
     51 H          -4.3417   -0.3727   -2.8083 H       1  UNL1        0.0622
     52 H          -5.1590   -2.3817   -1.6377 H       1  UNL1        0.0655
     53 H           4.1646   -2.2180   -2.6377 H       1  UNL1        0.0620
     54 H           6.7282    0.3979   -0.3760 H       1  UNL1        0.0654
     55 H           6.3725   -1.1286   -2.2871 H       1  UNL1        0.0619
     56 H          -4.9535   -3.7187    0.1398 H       1  UNL1        0.2923
     57 H           4.7894    2.9425    2.1830 H       1  UNL1        0.0660
     58 H           3.6288    2.5821    0.8854 H       1  UNL1        0.0660
     59 H           5.3617    2.8389    0.5029 H       1  UNL1        0.0660
@<TRIPOS>BOND
     1     1    11    1
     2     1    21    1
     3     2     8    1
     4     2    47    1
     5     3    15    2
     6     4    26    1
     7     4    56    1
     8     5    28    1
     9     5    32    1
    10     6     9    1
    11     6    17    1
    12     6    24    1
    13     7     8    1
    14     7    11    1
    15     7    13    1
    16     7    14    1
    17     8     9    1
    18     8    12    1
    19     9    16    1
    20     9    33    1
    21    10    12    1
    22    10    15    1
    23    10    19    1
    24    10    20    1
    25    11    15    1
    26    11    34    1
    27    12    35    1
    28    12    36    1
    29    13    17    1
    30    13    37    1
    31    13    38    1
    32    14    18   ar
    33    14    21   ar
    34    16    18    1
    35    16    39    1
    36    16    40    1
    37    17    41    1
    38    17    42    1
    39    18    25   ar
    40    19    22    1
    41    19    43    1
    42    19    44    1
    43    20    23    1
    44    20    45    1
    45    20    46    1
    46    21    26   ar
    47    22    23   ar
    48    22    28   ar
    49    23    29   ar
    50    24    48    1
    51    24    49    1
    52    24    50    1
    53    25    27   ar
    54    25    51    1
    55    26    27   ar
    56    27    52    1
    57    28    30   ar
    58    29    31   ar
    59    29    53    1
    60    30    31   ar
    61    30    54    1
    62    31    55    1
    63    32    57    1
    64    32    58    1
    65    32    59    1
@<TRIPOS>MOLECULE
76973798
 41 45 0 0 0
SMALL
GASTEIGER

@<TRIPOS>ATOM
      1 O          -1.9792    0.6324   -1.2644 O.3     1  UNL1       -0.4764
      2 O           2.2631    1.9801   -0.2352 O.3     1  UNL1       -0.3860
      3 O          -2.3866    2.7777    0.3338 O.2     1  UNL1       -0.2934
      4 O          -3.9576   -1.4087   -0.5900 O.3     1  UNL1       -0.5033
      5 N           2.9863   -0.6761   -0.4562 N.3     1  UNL1       -0.2993
      6 C           0.3558    0.5400   -0.6425 C.3     1  UNL1        0.0746
      7 C           1.3991    1.0114    0.3815 C.3     1  UNL1        0.0957
      8 C           2.2460   -0.2510    0.7604 C.3     1  UNL1        0.0438
      9 C          -0.8206    1.4752   -0.9658 C.3     1  UNL1        0.1701
     10 C           1.0719    0.0250   -1.9134 C.3     1  UNL1       -0.0238
     11 C          -0.4523   -0.5683   -0.0612 C.ar    1  UNL1        0.0141
     12 C           0.7476    1.7219    1.5815 C.3     1  UNL1       -0.0147
     13 C           1.3744   -1.3792    1.4174 C.3     1  UNL1       -0.0089
     14 C           2.1334   -1.0435   -1.5911 C.3     1  UNL1        0.0000
     15 C          -0.0108   -1.5169    0.8414 C.ar    1  UNL1       -0.0382
     16 C          -0.1314    2.8813    1.1150 C.3     1  UNL1        0.0123
     17 C          -1.2252    2.3914    0.1930 C.2     1  UNL1        0.1745
     18 C          -1.7559   -0.4953   -0.5089 C.ar    1  UNL1        0.1669
     19 C           4.0011   -1.6919   -0.1985 C.3     1  UNL1       -0.0124
     20 C          -0.9325   -2.4889    1.2305 C.ar    1  UNL1       -0.0546
     21 C          -2.6767   -1.4523   -0.1497 C.ar    1  UNL1        0.1588
     22 C          -2.2498   -2.4645    0.7224 C.ar    1  UNL1       -0.0162
     23 H           3.0039    0.0608    1.4920 H       1  UNL1        0.0494
     24 H          -0.6124    2.1117   -1.8333 H       1  UNL1        0.0824
     25 H           1.5560    0.8670   -2.4253 H       1  UNL1        0.0288
     26 H           0.3580   -0.3974   -2.6328 H       1  UNL1        0.0288
     27 H           1.5256    2.1241    2.2422 H       1  UNL1        0.0298
     28 H           0.1439    1.0332    2.1822 H       1  UNL1        0.0298
     29 H           1.2592   -1.1293    2.4806 H       1  UNL1        0.0329
     30 H           1.8832   -2.3476    1.3847 H       1  UNL1        0.0329
     31 H           1.6430   -2.0085   -1.4127 H       1  UNL1        0.0427
     32 H           2.7532   -1.1773   -2.4866 H       1  UNL1        0.0427
     33 H           0.4484    3.6457    0.5876 H       1  UNL1        0.0344
     34 H          -0.5955    3.3566    1.9862 H       1  UNL1        0.0344
     35 H           2.9710    2.1910    0.3973 H       1  UNL1        0.2103
     36 H           4.6510   -1.3941    0.6315 H       1  UNL1        0.0391
     37 H           4.6502   -1.8072   -1.0739 H       1  UNL1        0.0391
     38 H           3.5732   -2.6731    0.0299 H       1  UNL1        0.0391
     39 H          -0.6498   -3.2612    1.9408 H       1  UNL1        0.0622
     40 H          -2.9458   -3.2357    1.0454 H       1  UNL1        0.0655
     41 H          -4.4434   -2.1645   -0.2174 H       1  UNL1        0.2923
@<TRIPOS>BOND
     1     1     9    1
     2     1    18    1
     3     2     7    1
     4     2    35    1
     5     3    17    2
     6     4    21    1
     7     4    41    1
     8     5     8    1
     9     5    14    1
    10     5    19    1
    11     6     7    1
    12     6     9    1
    13     6    10    1
    14     6    11    1
    15     7     8    1
    16     7    12    1
    17     8    13    1
    18     8    23    1
    19     9    17    1
    20     9    24    1
    21    10    14    1
    22    10    25    1
    23    10    26    1
    24    11    15   ar
    25    11    18   ar
    26    12    16    1
    27    12    27    1
    28    12    28    1
    29    13    15    1
    30    13    29    1
    31    13    30    1
    32    14    31    1
    33    14    32    1
    34    15    20   ar
    35    16    17    1
    36    16    33    1
    37    16    34    1
    38    18    21   ar
    39    19    36    1
    40    19    37    1
    41    19    38    1
    42    20    22   ar
    43    20    39    1
    44    21    22   ar
    45    22    40    1
@<TRIPOS>MOLECULE
44444966
 55 61 0 0 0
SMALL
GASTEIGER

@<TRIPOS>ATOM
      1 O          -0.9065    1.8169   -1.6288 O.3     1  UNL1       -0.4764
      2 O          -0.2155   -2.6194   -0.5917 O.3     1  UNL1       -0.3860
      3 O           1.5415    1.9175   -0.5914 O.2     1  UNL1       -0.2928
      4 O          -2.3059    4.1941   -0.6572 O.3     1  UNL1       -0.5033
      5 N          -2.9105   -2.7250   -0.1458 N.3     1  UNL1       -0.2993
      6 C          -1.2747   -0.4217   -0.8115 C.3     1  UNL1        0.0746
      7 C          -0.7776   -1.5180    0.1370 C.3     1  UNL1        0.0962
      8 C          -2.0515   -2.0655    0.8740 C.3     1  UNL1        0.0438
      9 C          -0.2362    0.5282   -1.4194 C.3     1  UNL1        0.1707
     10 C           1.5065   -0.3039    0.3893 C.3     1  UNL1        0.0433
     11 C           0.3200   -1.0096    1.0903 C.3     1  UNL1       -0.0084
     12 C          -2.2208   -1.0389   -1.8695 C.3     1  UNL1       -0.0238
     13 C          -2.0292    0.6125   -0.0480 C.ar    1  UNL1        0.0141
     14 C           0.9743    0.8237   -0.5210 C.2     1  UNL1        0.1812
     15 C          -2.7835   -0.9629    1.7178 C.3     1  UNL1       -0.0089
     16 C          -3.3664   -1.8424   -1.2245 C.3     1  UNL1        0.0000
     17 C          -2.7903    0.4034    1.0855 C.ar    1  UNL1       -0.0382
     18 C           2.4055   -1.2491   -0.4560 C.3     1  UNL1       -0.0145
     19 C           2.4502    0.2830    1.4895 C.3     1  UNL1       -0.0145
     20 C          -1.8300    1.8579   -0.6093 C.ar    1  UNL1        0.1669
     21 C           3.7753   -0.6813   -0.2423 C.ar    1  UNL1       -0.0432
     22 C           3.8001    0.1831    0.8526 C.ar    1  UNL1       -0.0432
     23 C          -4.0136   -3.4916    0.4225 C.3     1  UNL1       -0.0124
     24 C          -3.4432    1.5158    1.6163 C.ar    1  UNL1       -0.0546
     25 C          -2.4770    2.9654   -0.1123 C.ar    1  UNL1        0.1588
     26 C          -3.2995    2.7828    1.0090 C.ar    1  UNL1       -0.0162
     27 C           4.9270   -0.9536   -0.9627 C.ar    1  UNL1       -0.0583
     28 C           4.9761    0.7954    1.2539 C.ar    1  UNL1       -0.0583
     29 C           6.1157   -0.3330   -0.5736 C.ar    1  UNL1       -0.0615
     30 C           6.1400    0.5360    0.5277 C.ar    1  UNL1       -0.0615
     31 H          -1.7272   -2.8566    1.5641 H       1  UNL1        0.0494
     32 H           0.1411    0.1665   -2.3823 H       1  UNL1        0.0824
     33 H           0.7078   -1.8556    1.6741 H       1  UNL1        0.0303
     34 H          -0.1059   -0.3091    1.8187 H       1  UNL1        0.0303
     35 H          -1.6445   -1.7025   -2.5275 H       1  UNL1        0.0288
     36 H          -2.6559   -0.2690   -2.5201 H       1  UNL1        0.0288
     37 H          -2.2568   -0.8750    2.6772 H       1  UNL1        0.0329
     38 H          -3.8086   -1.2600    1.9599 H       1  UNL1        0.0329
     39 H          -4.1403   -1.1543   -0.8622 H       1  UNL1        0.0427
     40 H          -3.8371   -2.4421   -2.0136 H       1  UNL1        0.0427
     41 H           2.1413   -1.2456   -1.5181 H       1  UNL1        0.0323
     42 H           2.3881   -2.2757   -0.0741 H       1  UNL1        0.0323
     43 H           2.4441   -0.3305    2.3980 H       1  UNL1        0.0323
     44 H           2.2024    1.3159    1.7536 H       1  UNL1        0.0323
     45 H           0.0036   -3.3205    0.0454 H       1  UNL1        0.2103
     46 H          -3.6571   -4.1684    1.2065 H       1  UNL1        0.0391
     47 H          -4.4701   -4.1234   -0.3480 H       1  UNL1        0.0391
     48 H          -4.8011   -2.8577    0.8421 H       1  UNL1        0.0391
     49 H          -4.0543    1.4198    2.5097 H       1  UNL1        0.0622
     50 H          -3.8213    3.6312    1.4467 H       1  UNL1        0.0655
     51 H           4.9117   -1.6324   -1.8088 H       1  UNL1        0.0620
     52 H           4.9984    1.4600    2.1110 H       1  UNL1        0.0620
     53 H           7.0318   -0.5279   -1.1245 H       1  UNL1        0.0618
     54 H           7.0747    1.0065    0.8201 H       1  UNL1        0.0618
     55 H          -2.8398    4.8358   -0.1580 H       1  UNL1        0.2923
@<TRIPOS>BOND
     1     1     9    1
     2     1    20    1
     3     2     7    1
     4     2    45    1
     5     3    14    2
     6     4    25    1
     7     4    55    1
     8     5     8    1
     9     5    16    1
    10     5    23    1
    11     6     7    1
    12     6     9    1
    13     6    12    1
    14     6    13    1
    15     7     8    1
    16     7    11    1
    17     8    15    1
    18     8    31    1
    19     9    14    1
    20     9    32    1
    21    10    11    1
    22    10    14    1
    23    10    18    1
    24    10    19    1
    25    11    33    1
    26    11    34    1
    27    12    16    1
    28    12    35    1
    29    12    36    1
    30    13    17   ar
    31    13    20   ar
    32    15    17    1
    33    15    37    1
    34    15    38    1
    35    16    39    1
    36    16    40    1
    37    17    24   ar
    38    18    21    1
    39    18    41    1
    40    18    42    1
    41    19    22    1
    42    19    43    1
    43    19    44    1
    44    20    25   ar
    45    21    22   ar
    46    21    27   ar
    47    22    28   ar
    48    23    46    1
    49    23    47    1
    50    23    48    1
    51    24    26   ar
    52    24    49    1
    53    25    26   ar
    54    26    50    1
    55    27    29   ar
    56    27    51    1
    57    28    30   ar
    58    28    52    1
    59    29    30   ar
    60    29    53    1
    61    30    54    1
@<TRIPOS>MOLECULE
5486981
 40 44 0 0 0
SMALL
GASTEIGER

@<TRIPOS>ATOM
      1 O          -2.2215    0.5392   -1.1748 O.3     1  UNL1       -0.4764
      2 O           1.8179    2.4144   -0.1707 O.3     1  UNL1       -0.3855
      3 O           2.1604   -2.0450    1.6715 O.2     1  UNL1       -0.2903
      4 O          -2.8536    2.4344    0.6427 O.2     1  UNL1       -0.2934
      5 O          -3.8351   -1.8282   -0.6100 O.3     1  UNL1       -0.5033
      6 N           2.9338   -0.0706   -0.7071 N.3     1  UNL1       -0.2933
      7 C           0.1373    0.7474   -0.6774 C.3     1  UNL1        0.0754
      8 C           1.1449    1.2593    0.3579 C.3     1  UNL1        0.1026
      9 C           2.1918    0.1237    0.5599 C.3     1  UNL1        0.1034
     10 C          -1.1838    1.5168   -0.8427 C.3     1  UNL1        0.1701
     11 C           0.8608    0.4956   -2.0212 C.3     1  UNL1       -0.0238
     12 C          -0.4581   -0.5269   -0.1907 C.ar    1  UNL1        0.0214
     13 C           0.4623    1.7198    1.6577 C.3     1  UNL1       -0.0143
     14 C           2.0958   -0.4147   -1.8631 C.3     1  UNL1        0.0004
     15 C          -0.6036    2.7740    1.3655 C.3     1  UNL1        0.0123
     16 C           0.1627   -1.4936    0.5702 C.ar    1  UNL1        0.0267
     17 C           1.5524   -1.2137    1.0045 C.2     1  UNL1        0.1833
     18 C          -1.6572    2.2351    0.4250 C.2     1  UNL1        0.1745
     19 C          -1.7858   -0.6085   -0.5547 C.ar    1  UNL1        0.1673
     20 C           4.0839   -0.9589   -0.5873 C.3     1  UNL1       -0.0120
     21 C          -0.5659   -2.6301    0.9087 C.ar    1  UNL1       -0.0472
     22 C          -2.5329   -1.7243   -0.2486 C.ar    1  UNL1        0.1588
     23 C          -1.9067   -2.7453    0.4844 C.ar    1  UNL1       -0.0158
     24 H           2.8908    0.4468    1.3421 H       1  UNL1        0.0574
     25 H          -1.1279    2.2616   -1.6446 H       1  UNL1        0.0824
     26 H           1.1782    1.4543   -2.4513 H       1  UNL1        0.0288
     27 H           0.1852    0.0420   -2.7584 H       1  UNL1        0.0288
     28 H           1.2083    2.1641    2.3283 H       1  UNL1        0.0298
     29 H           0.0081    0.8804    2.1957 H       1  UNL1        0.0298
     30 H           1.7696   -1.4609   -1.8058 H       1  UNL1        0.0427
     31 H           2.6911   -0.3322   -2.7811 H       1  UNL1        0.0427
     32 H          -0.1807    3.6857    0.9328 H       1  UNL1        0.0344
     33 H          -1.0920    3.0555    2.3055 H       1  UNL1        0.0344
     34 H           1.1609    2.9930   -0.5921 H       1  UNL1        0.2103
     35 H           4.7250   -0.6566    0.2481 H       1  UNL1        0.0391
     36 H           4.7024   -0.9025   -1.4901 H       1  UNL1        0.0391
     37 H           3.7954   -2.0053   -0.4435 H       1  UNL1        0.0391
     38 H          -0.1248   -3.4259    1.5016 H       1  UNL1        0.0626
     39 H          -2.4633   -3.6396    0.7572 H       1  UNL1        0.0655
     40 H          -4.1812   -2.6808   -0.2947 H       1  UNL1        0.2923
@<TRIPOS>BOND
     1     1    10    1
     2     1    19    1
     3     2     8    1
     4     2    34    1
     5     3    17    2
     6     4    18    2
     7     5    22    1
     8     5    40    1
     9     6     9    1
    10     6    14    1
    11     6    20    1
    12     7     8    1
    13     7    10    1
    14     7    11    1
    15     7    12    1
    16     8     9    1
    17     8    13    1
    18     9    17    1
    19     9    24    1
    20    10    18    1
    21    10    25    1
    22    11    14    1
    23    11    26    1
    24    11    27    1
    25    12    16   ar
    26    12    19   ar
    27    13    15    1
    28    13    28    1
    29    13    29    1
    30    14    30    1
    31    14    31    1
    32    15    18    1
    33    15    32    1
    34    15    33    1
    35    16    17    1
    36    16    21   ar
    37    19    22   ar
    38    20    35    1
    39    20    36    1
    40    20    37    1
    41    21    23   ar
    42    21    38    1
    43    22    23   ar
    44    23    39    1
@<TRIPOS>MOLECULE
5497189
 38 42 0 0 0
SMALL
GASTEIGER

@<TRIPOS>ATOM
      1 O           1.5201    1.1433    1.2300 O.3     1  UNL1       -0.4764
      2 O          -2.9444    0.9809    0.2614 O.3     1  UNL1       -0.3860
      3 O           1.1660    3.2767   -0.3942 O.2     1  UNL1       -0.2934
      4 O           4.0549   -0.1366    0.5408 O.3     1  UNL1       -0.5033
      5 N          -2.7209   -1.7969    0.5127 N.3     1  UNL1       -0.3103
      6 C          -0.6608    0.2683    0.6569 C.3     1  UNL1        0.0746
      7 C          -1.8122    0.3480   -0.3554 C.3     1  UNL1        0.0955
      8 C          -2.1899   -1.1248   -0.7004 C.3     1  UNL1        0.0415
      9 C           0.1422    1.5466    0.9461 C.3     1  UNL1        0.1701
     10 C          -1.1540   -0.4339    1.9446 C.3     1  UNL1       -0.0241
     11 C           0.4624   -0.5210    0.0759 C.ar    1  UNL1        0.0141
     12 C          -1.4478    1.2089   -1.5770 C.3     1  UNL1       -0.0147
     13 C          -1.0160   -1.9431   -1.3311 C.3     1  UNL1       -0.0091
     14 C          -1.7891   -1.8024    1.6454 C.3     1  UNL1       -0.0027
     15 C           0.3477   -1.5861   -0.7986 C.ar    1  UNL1       -0.0382
     16 C          -0.9999    2.6036   -1.1430 C.3     1  UNL1        0.0123
     17 C           0.2035    2.5250   -0.2309 C.2     1  UNL1        0.1745
     18 C           1.6736   -0.0086    0.4940 C.ar    1  UNL1        0.1669
     19 C           1.5340   -2.2052   -1.1914 C.ar    1  UNL1       -0.0546
     20 C           2.8547   -0.6129    0.1295 C.ar    1  UNL1        0.1588
     21 C           2.7757   -1.7299   -0.7156 C.ar    1  UNL1       -0.0162
     22 H          -3.0240   -1.1189   -1.4134 H       1  UNL1        0.0492
     23 H          -0.2525    2.0927    1.8103 H       1  UNL1        0.0824
     24 H          -1.8914    0.2016    2.4516 H       1  UNL1        0.0288
     25 H          -0.3343   -0.5777    2.6609 H       1  UNL1        0.0288
     26 H          -2.3253    1.3164   -2.2265 H       1  UNL1        0.0298
     27 H          -0.6582    0.7459   -2.1787 H       1  UNL1        0.0298
     28 H          -1.0092   -1.7403   -2.4100 H       1  UNL1        0.0329
     29 H          -1.1907   -3.0196   -1.2132 H       1  UNL1        0.0329
     30 H          -1.0064   -2.5514    1.4777 H       1  UNL1        0.0424
     31 H          -2.3323   -2.1374    2.5365 H       1  UNL1        0.0424
     32 H          -2.9842   -2.7556    0.2868 H       1  UNL1        0.1223
     33 H          -1.7932    3.1564   -0.6310 H       1  UNL1        0.0344
     34 H          -0.7216    3.1806   -2.0322 H       1  UNL1        0.0344
     35 H          -2.6357    1.7558    0.7596 H       1  UNL1        0.2103
     36 H           1.5135   -3.0471   -1.8781 H       1  UNL1        0.0622
     37 H           3.6839   -2.2332   -1.0404 H       1  UNL1        0.0655
     38 H           4.7586   -0.6964    0.1699 H       1  UNL1        0.2923
@<TRIPOS>BOND
     1     1     9    1
     2     1    18    1
     3     2     7    1
     4     2    35    1
     5     3    17    2
     6     4    20    1
     7     4    38    1
     8     5     8    1
     9     5    14    1
    10     5    32    1
    11     6     7    1
    12     6     9    1
    13     6    10    1
    14     6    11    1
    15     7     8    1
    16     7    12    1
    17     8    13    1
    18     8    22    1
    19     9    17    1
    20     9    23    1
    21    10    14    1
    22    10    24    1
    23    10    25    1
    24    11    15   ar
    25    11    18   ar
    26    12    16    1
    27    12    26    1
    28    12    27    1
    29    13    15    1
    30    13    28    1
    31    13    29    1
    32    14    30    1
    33    14    31    1
    34    15    19   ar
    35    16    17    1
    36    16    33    1
    37    16    34    1
    38    18    20   ar
    39    19    21   ar
    40    19    36    1
    41    20    21   ar
    42    21    37    1
@<TRIPOS>MOLECULE
56843406
 51 55 0 0 0
SMALL
GASTEIGER

@<TRIPOS>ATOM
      1 O          -1.6660    0.7772   -1.3966 O.3     1  UNL1       -0.4763
      2 O           2.8008    1.0085   -0.4654 O.3     1  UNL1       -0.4556
      3 O          -1.4595    3.0450    0.0652 O.2     1  UNL1       -0.2934
      4 O          -4.1012   -0.6209   -0.5902 O.3     1  UNL1       -0.4223
      5 O           4.0442    0.9835    1.4814 O.2     1  UNL1       -0.2511
      6 O          -4.2471    0.9143    1.1707 O.2     1  UNL1       -0.2507
      7 N           2.7899   -1.7527   -0.5216 N.3     1  UNL1       -0.2983
      8 C           0.5726    0.1051   -0.7765 C.3     1  UNL1        0.0856
      9 C           1.7230    0.3426    0.2131 C.3     1  UNL1        0.1430
     10 C           2.2123   -1.0744    0.6680 C.3     1  UNL1        0.0550
     11 C          -0.3200    1.2982   -1.1546 C.3     1  UNL1        0.1711
     12 C           1.1020   -0.6565   -2.0146 C.3     1  UNL1       -0.0228
     13 C          -0.4890   -0.7119   -0.1248 C.ar    1  UNL1        0.0152
     14 C           1.3063    1.2710    1.3680 C.3     1  UNL1       -0.0035
     15 C           1.0857   -1.8893    1.3968 C.3     1  UNL1       -0.0079
     16 C           1.8484   -1.9473   -1.6289 C.3     1  UNL1        0.0001
     17 C          -0.2973   -1.6882    0.8343 C.ar    1  UNL1       -0.0381
     18 C           0.7571    2.5922    0.8322 C.3     1  UNL1        0.0133
     19 C          -0.4450    2.3564   -0.0543 C.2     1  UNL1        0.1746
     20 C          -1.7350   -0.3221   -0.5726 C.ar    1  UNL1        0.1679
     21 C           3.5040   -2.9843   -0.2035 C.3     1  UNL1       -0.0123
     22 C          -1.4359   -2.3553    1.2861 C.ar    1  UNL1       -0.0545
     23 C          -2.8694   -0.9770   -0.1516 C.ar    1  UNL1        0.1733
     24 C          -2.7092   -2.0123    0.7810 C.ar    1  UNL1       -0.0153
     25 C           3.8969    1.2629    0.2993 C.2     1  UNL1        0.3045
     26 C           4.9317    1.9557   -0.5345 C.3     1  UNL1        0.0333
     27 C          -4.7244    0.3788    0.1790 C.2     1  UNL1        0.3093
     28 C          -6.0762    0.7010   -0.3852 C.3     1  UNL1        0.0336
     29 H           3.0244   -0.9936    1.3953 H       1  UNL1        0.0505
     30 H           0.0328    1.8036   -2.0607 H       1  UNL1        0.0824
     31 H           1.7822   -0.0054   -2.5792 H       1  UNL1        0.0289
     32 H           0.2881   -0.9161   -2.7043 H       1  UNL1        0.0289
     33 H           2.0755    1.4981    2.1052 H       1  UNL1        0.0309
     34 H           0.5105    0.7983    1.9574 H       1  UNL1        0.0309
     35 H           1.0601   -1.5552    2.4427 H       1  UNL1        0.0330
     36 H           1.3181   -2.9585    1.4223 H       1  UNL1        0.0330
     37 H           1.1235   -2.7351   -1.3891 H       1  UNL1        0.0427
     38 H           2.3933   -2.2940   -2.5160 H       1  UNL1        0.0427
     39 H           1.5072    3.1494    0.2622 H       1  UNL1        0.0344
     40 H           0.4448    3.2201    1.6744 H       1  UNL1        0.0344
     41 H           4.2294   -2.8205    0.6008 H       1  UNL1        0.0391
     42 H           4.0789   -3.3220   -1.0734 H       1  UNL1        0.0391
     43 H           2.8365   -3.8002    0.0908 H       1  UNL1        0.0391
     44 H          -1.3544   -3.1312    2.0426 H       1  UNL1        0.0622
     45 H          -3.5818   -2.5469    1.1499 H       1  UNL1        0.0656
     46 H           5.2257    1.3139   -1.3688 H       1  UNL1        0.0342
     47 H           5.8152    2.1572    0.0780 H       1  UNL1        0.0342
     48 H           4.5368    2.9070   -0.8999 H       1  UNL1        0.0342
     49 H          -5.9706    1.0630   -1.4108 H       1  UNL1        0.0342
     50 H          -6.5428    1.4863    0.2162 H       1  UNL1        0.0342
     51 H          -6.7103   -0.1882   -0.3534 H       1  UNL1        0.0342
@<TRIPOS>BOND
     1     1    11    1
     2     1    20    1
     3     2     9    1
     4     2    25    1
     5     3    19    2
     6     4    23    1
     7     4    27    1
     8     5    25    2
     9     6    27    2
    10     7    10    1
    11     7    16    1
    12     7    21    1
    13     8     9    1
    14     8    11    1
    15     8    12    1
    16     8    13    1
    17     9    10    1
    18     9    14    1
    19    10    15    1
    20    10    29    1
    21    11    19    1
    22    11    30    1
    23    12    16    1
    24    12    31    1
    25    12    32    1
    26    13    17   ar
    27    13    20   ar
    28    14    18    1
    29    14    33    1
    30    14    34    1
    31    15    17    1
    32    15    35    1
    33    15    36    1
    34    16    37    1
    35    16    38    1
    36    17    22   ar
    37    18    19    1
    38    18    39    1
    39    18    40    1
    40    20    23   ar
    41    21    41    1
    42    21    42    1
    43    21    43    1
    44    22    24   ar
    45    22    44    1
    46    23    24   ar
    47    24    45    1
    48    25    26    1
    49    26    46    1
    50    26    47    1
    51    26    48    1
    52    27    28    1
    53    28    49    1
    54    28    50    1
    55    28    51    1
@<TRIPOS>MOLECULE
5490620
 56 60 0 0 0
SMALL
GASTEIGER

@<TRIPOS>ATOM
      1 CL          5.0076   -3.1010   -1.7443 Cl      1  UNL1       -0.1241
      2 CL          4.6471    2.3244    2.5152 Cl      1  UNL1       -0.1241
      3 O           0.3676    1.0656   -1.6360 O.3     1  UNL1       -0.4823
      4 O          -0.7089   -2.7790    0.5755 O.3     1  UNL1       -0.3860
      5 O          -0.3337    3.9016   -1.7850 O.3     1  UNL1       -0.5033
      6 N          -3.4867   -1.9156    0.1628 N.3     1  UNL1       -0.2993
      7 N           2.8816   -0.0362   -0.2279 N.3     1  UNL1       -0.2936
      8 C          -0.9202   -0.6026   -0.4557 C.3     1  UNL1        0.0691
      9 C          -1.0784   -1.4173    0.8318 C.3     1  UNL1        0.0950
     10 C           0.5048   -0.2087   -0.9002 C.3     1  UNL1        0.1282
     11 C          -2.5958   -1.3459    1.2102 C.3     1  UNL1        0.0438
     12 C          -1.7439   -1.2727   -1.5830 C.3     1  UNL1       -0.0242
     13 C          -1.4292    0.7831   -0.2528 C.ar    1  UNL1        0.0137
     14 C          -0.1229   -0.9416    1.9409 C.3     1  UNL1       -0.0200
     15 C           1.5027    0.0328    0.2663 C.3     1  UNL1        0.0484
     16 C           1.3265   -0.9380    1.4362 C.3     1  UNL1       -0.0312
     17 C          -3.0625    0.1263    1.5027 C.3     1  UNL1       -0.0089
     18 C          -3.2276   -1.4293   -1.1995 C.3     1  UNL1        0.0000
     19 C          -2.4533    1.1635    0.5944 C.ar    1  UNL1       -0.0382
     20 C          -0.6984    1.6748   -1.0126 C.ar    1  UNL1        0.1663
     21 C          -3.5978   -3.3702    0.2054 C.3     1  UNL1       -0.0124
     22 C          -2.7924    2.5160    0.5982 C.ar    1  UNL1       -0.0546
     23 C          -1.0279    3.0101   -1.0369 C.ar    1  UNL1        0.1588
     24 C           3.1900   -1.3897   -0.6834 C.3     1  UNL1        0.0128
     25 C           3.8157    0.3807    0.8155 C.3     1  UNL1        0.0128
     26 C          -2.0946    3.4269   -0.2259 C.ar    1  UNL1       -0.0162
     27 C           4.6294   -1.4596   -1.1693 C.3     1  UNL1        0.0354
     28 C           3.5013    1.8016    1.2576 C.3     1  UNL1        0.0354
     29 H           0.8391   -0.9466   -1.6294 H       1  UNL1        0.0759
     30 H          -2.7657   -1.9155    2.1337 H       1  UNL1        0.0494
     31 H          -1.3233   -2.2598   -1.8129 H       1  UNL1        0.0288
     32 H          -1.6866   -0.6951   -2.5151 H       1  UNL1        0.0288
     33 H          -0.1882   -1.6183    2.8024 H       1  UNL1        0.0294
     34 H          -0.3789    0.0586    2.3063 H       1  UNL1        0.0294
     35 H           1.2759    1.0391    0.6219 H       1  UNL1        0.0499
     36 H           1.9431   -0.6528    2.2949 H       1  UNL1        0.0282
     37 H           1.5695   -1.9756    1.2006 H       1  UNL1        0.0282
     38 H          -2.7725    0.3762    2.5316 H       1  UNL1        0.0329
     39 H          -4.1570    0.1927    1.4596 H       1  UNL1        0.0329
     40 H          -3.7253   -0.4578   -1.3089 H       1  UNL1        0.0427
     41 H          -3.7247   -2.0660   -1.9432 H       1  UNL1        0.0427
     42 H          -0.8895   -3.2930    1.3810 H       1  UNL1        0.2103
     43 H          -3.7833   -3.7242    1.2253 H       1  UNL1        0.0391
     44 H          -2.7162   -3.8840   -0.1873 H       1  UNL1        0.0391
     45 H          -4.4588   -3.6951   -0.3902 H       1  UNL1        0.0391
     46 H          -3.5866    2.8818    1.2433 H       1  UNL1        0.0622
     47 H           2.5682   -1.7093   -1.5214 H       1  UNL1        0.0438
     48 H           3.1063   -2.1479    0.0994 H       1  UNL1        0.0438
     49 H           4.8297    0.4496    0.4077 H       1  UNL1        0.0438
     50 H           3.8750   -0.3096    1.6645 H       1  UNL1        0.0438
     51 H          -2.3831    4.4757   -0.2014 H       1  UNL1        0.0655
     52 H           4.8139   -0.7671   -1.9967 H       1  UNL1        0.0442
     53 H           5.3667   -1.2848   -0.3843 H       1  UNL1        0.0442
     54 H           3.5673    2.5126    0.4278 H       1  UNL1        0.0442
     55 H           2.5349    1.9153    1.7477 H       1  UNL1        0.0442
     56 H          -0.7174    4.7859   -1.6557 H       1  UNL1        0.2923
@<TRIPOS>BOND
     1     1    27    1
     2     2    28    1
     3     3    10    1
     4     3    20    1
     5     4     9    1
     6     4    42    1
     7     5    23    1
     8     5    56    1
     9     6    11    1
    10     6    18    1
    11     6    21    1
    12     7    15    1
    13     7    24    1
    14     7    25    1
    15     8     9    1
    16     8    10    1
    17     8    12    1
    18     8    13    1
    19     9    11    1
    20     9    14    1
    21    10    15    1
    22    10    29    1
    23    11    17    1
    24    11    30    1
    25    12    18    1
    26    12    31    1
    27    12    32    1
    28    13    19   ar
    29    13    20   ar
    30    14    16    1
    31    14    33    1
    32    14    34    1
    33    15    16    1
    34    15    35    1
    35    16    36    1
    36    16    37    1
    37    17    19    1
    38    17    38    1
    39    17    39    1
    40    18    40    1
    41    18    41    1
    42    19    22   ar
    43    20    23   ar
    44    21    43    1
    45    21    44    1
    46    21    45    1
    47    22    26   ar
    48    22    46    1
    49    23    26   ar
    50    24    27    1
    51    24    47    1
    52    24    48    1
    53    25    28    1
    54    25    49    1
    55    25    50    1
    56    26    51    1
    57    27    52    1
    58    27    53    1
    59    28    54    1
    60    28    55    1
@<TRIPOS>MOLECULE
5284603
 44 48 0 0 0
SMALL
GASTEIGER

@<TRIPOS>ATOM
      1 O          -1.5733    1.1048   -1.2494 O.3     1  UNL1       -0.4764
      2 O           2.8706    1.4889   -0.2605 O.3     1  UNL1       -0.3860
      3 O          -1.4839    3.2947    0.3380 O.2     1  UNL1       -0.2934
      4 O          -3.9470   -0.4470   -0.5476 O.3     1  UNL1       -0.4914
      5 N           2.9881   -1.2626   -0.4685 N.3     1  UNL1       -0.2993
      6 C           0.6891    0.5030   -0.6438 C.3     1  UNL1        0.0746
      7 C           1.8193    0.7378    0.3692 C.3     1  UNL1        0.0957
      8 C           2.3704   -0.6783    0.7505 C.3     1  UNL1        0.0438
      9 C          -0.2549    1.6729   -0.9650 C.3     1  UNL1        0.1701
     10 C           1.2628   -0.1639   -1.9164 C.3     1  UNL1       -0.0238
     11 C          -0.3385   -0.3970   -0.0492 C.ar    1  UNL1        0.0141
     12 C           1.3513    1.5806    1.5690 C.3     1  UNL1       -0.0147
     13 C           1.2771   -1.5832    1.4218 C.3     1  UNL1       -0.0089
     14 C           2.0651   -1.4385   -1.5944 C.3     1  UNL1        0.0000
     15 C          -0.1091   -1.4152    0.8564 C.ar    1  UNL1       -0.0382
     16 C           0.7455    2.9029    1.1010 C.3     1  UNL1        0.0123
     17 C          -0.4374    2.6614    0.1907 C.2     1  UNL1        0.1745
     18 C          -1.5976   -0.0407   -0.4882 C.ar    1  UNL1        0.1671
     19 C           3.7561   -2.4759   -0.2113 C.3     1  UNL1       -0.0124
     20 C          -1.2189   -2.1586    1.2581 C.ar    1  UNL1       -0.0546
     21 C          -2.7035   -0.7697   -0.1163 C.ar    1  UNL1        0.1618
     22 C          -2.5027   -1.8471    0.7590 C.ar    1  UNL1       -0.0160
     23 C          -5.0287   -1.2690   -0.1029 C.3     1  UNL1        0.0790
     24 H           3.1853   -0.5354    1.4731 H       1  UNL1        0.0494
     25 H           0.0806    2.2435   -1.8384 H       1  UNL1        0.0824
     26 H           1.9153    0.5465   -2.4404 H       1  UNL1        0.0288
     27 H           0.4665   -0.4231   -2.6265 H       1  UNL1        0.0288
     28 H           2.2074    1.8052    2.2170 H       1  UNL1        0.0298
     29 H           0.6175    1.0451    2.1808 H       1  UNL1        0.0298
     30 H           1.2288   -1.3083    2.4839 H       1  UNL1        0.0329
     31 H           1.5599   -2.6400    1.3925 H       1  UNL1        0.0329
     32 H           1.3755   -2.2707   -1.4056 H       1  UNL1        0.0427
     33 H           2.6321   -1.7106   -2.4936 H       1  UNL1        0.0427
     34 H           1.4703    3.5322    0.5761 H       1  UNL1        0.0344
     35 H           0.3986    3.4647    1.9757 H       1  UNL1        0.0344
     36 H           2.4730    2.2073   -0.7799 H       1  UNL1        0.2103
     37 H           4.3562   -2.7360   -1.0906 H       1  UNL1        0.0391
     38 H           3.1243   -3.3374    0.0270 H       1  UNL1        0.0391
     39 H           4.4628   -2.3246    0.6119 H       1  UNL1        0.0391
     40 H          -1.1062   -2.9713    1.9708 H       1  UNL1        0.0622
     41 H          -3.3124   -2.4747    1.1193 H       1  UNL1        0.0655
     42 H          -4.9148   -2.3020   -0.4487 H       1  UNL1        0.0660
     43 H          -5.9433   -0.8749   -0.5576 H       1  UNL1        0.0660
     44 H          -5.1555   -1.2086    0.9831 H       1  UNL1        0.0660
@<TRIPOS>BOND
     1     1     9    1
     2     1    18    1
     3     2     7    1
     4     2    36    1
     5     3    17    2
     6     4    21    1
     7     4    23    1
     8     5     8    1
     9     5    14    1
    10     5    19    1
    11     6     7    1
    12     6     9    1
    13     6    10    1
    14     6    11    1
    15     7     8    1
    16     7    12    1
    17     8    13    1
    18     8    24    1
    19     9    17    1
    20     9    25    1
    21    10    14    1
    22    10    26    1
    23    10    27    1
    24    11    15   ar
    25    11    18   ar
    26    12    16    1
    27    12    28    1
    28    12    29    1
    29    13    15    1
    30    13    30    1
    31    13    31    1
    32    14    32    1
    33    14    33    1
    34    15    20   ar
    35    16    17    1
    36    16    34    1
    37    16    35    1
    38    18    21   ar
    39    19    37    1
    40    19    38    1
    41    19    39    1
    42    20    22   ar
    43    20    40    1
    44    21    22   ar
    45    22    41    1
    46    23    42    1
    47    23    43    1
    48    23    44    1
@<TRIPOS>MOLECULE
9576841
 54 59 0 0 0
SMALL
GASTEIGER

@<TRIPOS>ATOM
      1 O          -0.6607    0.0791    1.1894 O.3     1  UNL1       -0.4780
      2 O           3.0397   -2.4385    0.2713 O.3     1  UNL1       -0.3860
      3 O          -1.9626    2.5828    0.4422 O.3     1  UNL1       -0.5033
      4 N           4.4906   -0.0976    0.4949 N.3     1  UNL1       -0.2993
      5 N          -1.6698   -1.9776   -0.3508 N.2     1  UNL1       -0.1877
      6 N          -2.3765   -1.2384    0.5381 N.pl3   1  UNL1       -0.2377
      7 C           1.6183   -0.5073    0.6310 C.3     1  UNL1        0.0730
      8 C           2.5024   -1.2693   -0.3688 C.3     1  UNL1        0.0956
      9 C           3.6842   -0.3082   -0.7354 C.3     1  UNL1        0.0438
     10 C           0.2177   -1.0648    0.9415 C.3     1  UNL1        0.1520
     11 C           2.4283   -0.1992    1.9124 C.3     1  UNL1       -0.0239
     12 C           1.1723    0.7762    0.0193 C.ar    1  UNL1        0.0141
     13 C           1.6984   -1.7736   -1.5821 C.3     1  UNL1       -0.0163
     14 C           3.1868    1.0138   -1.4195 C.3     1  UNL1       -0.0089
     15 C           3.7565    0.5168    1.6055 C.3     1  UNL1        0.0000
     16 C           1.8852    1.5468   -0.8800 C.ar    1  UNL1       -0.0382
     17 C           0.5230   -2.6395   -1.1327 C.3     1  UNL1       -0.0065
     18 C          -0.3880   -1.8728   -0.2061 C.2     1  UNL1        0.0780
     19 C          -0.1084    1.0828    0.4301 C.ar    1  UNL1        0.1668
     20 C           5.7608    0.5777    0.2536 C.3     1  UNL1       -0.0124
     21 C           1.2866    2.7337   -1.3030 C.ar    1  UNL1       -0.0546
     22 C          -0.7117    2.2552    0.0366 C.ar    1  UNL1        0.1588
     23 C           0.0049    3.0914   -0.8318 C.ar    1  UNL1       -0.0162
     24 C          -3.6052   -0.7049    0.2793 C.ar    1  UNL1        0.0483
     25 C          -4.3020    0.0625    1.2478 C.ar    1  UNL1       -0.0391
     26 C          -4.2480   -0.8911   -0.9714 C.ar    1  UNL1       -0.0391
     27 C          -5.5585    0.6073    0.9832 C.ar    1  UNL1       -0.0600
     28 C          -5.5046   -0.3461   -1.2360 C.ar    1  UNL1       -0.0600
     29 C          -6.1597    0.4030   -0.2585 C.ar    1  UNL1       -0.0616
     30 H           4.3353   -0.8337   -1.4472 H       1  UNL1        0.0494
     31 H           0.2260   -1.7045    1.8324 H       1  UNL1        0.0807
     32 H           2.6420   -1.1370    2.4420 H       1  UNL1        0.0288
     33 H           1.8511    0.4197    2.6118 H       1  UNL1        0.0288
     34 H           2.3446   -2.3798   -2.2290 H       1  UNL1        0.0297
     35 H           1.3217   -0.9465   -2.1931 H       1  UNL1        0.0297
     36 H           3.0302    0.7947   -2.4842 H       1  UNL1        0.0329
     37 H           3.9496    1.7974   -1.3779 H       1  UNL1        0.0329
     38 H           3.5664    1.5788    1.4064 H       1  UNL1        0.0427
     39 H           4.3707    0.4822    2.5142 H       1  UNL1        0.0427
     40 H           0.8681   -3.5352   -0.6050 H       1  UNL1        0.0328
     41 H          -0.0453   -2.9723   -2.0083 H       1  UNL1        0.0328
     42 H           3.6670   -2.8522   -0.3459 H       1  UNL1        0.2103
     43 H           6.3141    0.0923   -0.5577 H       1  UNL1        0.0391
     44 H           6.3970    0.5138    1.1436 H       1  UNL1        0.0391
     45 H           5.6398    1.6370    0.0064 H       1  UNL1        0.0391
     46 H           1.7935    3.3825   -2.0123 H       1  UNL1        0.0622
     47 H          -0.4420    4.0211   -1.1772 H       1  UNL1        0.0655
     48 H          -2.2609    1.9104    1.0782 H       1  UNL1        0.2923
     49 H          -2.0353   -1.1455    1.4886 H       1  UNL1        0.1744
     50 H          -3.8506    0.2339    2.2233 H       1  UNL1        0.0636
     51 H          -3.7668   -1.4692   -1.7579 H       1  UNL1        0.0636
     52 H          -6.0684    1.1909    1.7440 H       1  UNL1        0.0618
     53 H          -5.9730   -0.5047   -2.2029 H       1  UNL1        0.0618
     54 H          -7.1379    0.8275   -0.4646 H       1  UNL1        0.0618
@<TRIPOS>BOND
     1     1    10    1
     2     1    19    1
     3     2     8    1
     4     2    42    1
     5     3    22    1
     6     3    48    1
     7     4     9    1
     8     4    15    1
     9     4    20    1
    10     5     6    1
    11     5    18    2
    12     6    24    1
    13     6    49    1
    14     7     8    1
    15     7    10    1
    16     7    11    1
    17     7    12    1
    18     8     9    1
    19     8    13    1
    20     9    14    1
    21     9    30    1
    22    10    18    1
    23    10    31    1
    24    11    15    1
    25    11    32    1
    26    11    33    1
    27    12    16   ar
    28    12    19   ar
    29    13    17    1
    30    13    34    1
    31    13    35    1
    32    14    16    1
    33    14    36    1
    34    14    37    1
    35    15    38    1
    36    15    39    1
    37    16    21   ar
    38    17    18    1
    39    17    40    1
    40    17    41    1
    41    19    22   ar
    42    20    43    1
    43    20    44    1
    44    20    45    1
    45    21    23   ar
    46    21    46    1
    47    22    23   ar
    48    23    47    1
    49    24    25   ar
    50    24    26   ar
    51    25    27   ar
    52    25    50    1
    53    26    28   ar
    54    26    51    1
    55    27    29   ar
    56    27    52    1
    57    28    29   ar
    58    28    53    1
    59    29    54    1
