@<TRIPOS>MOLECULE
441278
 48 50 0 0 0
SMALL
GASTEIGER

@<TRIPOS>ATOM
      1 O          -4.3985   -2.3392   -1.0760 O.3     1  UNL1       -0.5068
      2 N           1.6011    0.9758    0.2304 N.3     1  UNL1       -0.2952
      3 C          -1.1019    1.3531   -0.8464 C.3     1  UNL1       -0.0015
      4 C          -0.4929    2.2573    0.2691 C.3     1  UNL1       -0.0185
      5 C           0.4861    1.4019    1.1033 C.3     1  UNL1        0.0181
      6 C           0.0792    0.8568   -1.7268 C.3     1  UNL1       -0.0304
      7 C          -0.2787    0.2690    1.8213 C.3     1  UNL1       -0.0114
      8 C          -1.7920    0.1210   -0.2397 C.ar    1  UNL1       -0.0344
      9 C           1.1908    0.1715   -0.9214 C.3     1  UNL1        0.0003
     10 C          -1.3700   -0.3899    1.0084 C.ar    1  UNL1       -0.0419
     11 C          -2.0466    2.1932   -1.7341 C.3     1  UNL1       -0.0552
     12 C          -1.5331    2.9724    1.1467 C.3     1  UNL1       -0.0602
     13 C           2.6983    0.3435    0.9558 C.3     1  UNL1        0.0176
     14 C          -2.8089   -0.5640   -0.9298 C.ar    1  UNL1       -0.0162
     15 C          -1.9922   -1.5301    1.5453 C.ar    1  UNL1       -0.0548
     16 C          -3.4136   -1.6997   -0.3874 C.ar    1  UNL1        0.1172
     17 C          -3.0084   -2.1805    0.8514 C.ar    1  UNL1       -0.0199
     18 C           3.9026    0.1635    0.0788 C.2     1  UNL1       -0.0713
     19 C           4.5250   -0.9818   -0.2608 C.2     1  UNL1       -0.0784
     20 C           5.7326   -1.0911   -1.1480 C.3     1  UNL1       -0.0440
     21 C           4.0211   -2.3027    0.2597 C.3     1  UNL1       -0.0440
     22 H           0.0884    3.0599   -0.2109 H       1  UNL1        0.0322
     23 H           0.9217    2.0499    1.8763 H       1  UNL1        0.0469
     24 H           0.5164    1.7135   -2.2588 H       1  UNL1        0.0286
     25 H          -0.2771    0.1639   -2.5003 H       1  UNL1        0.0286
     26 H          -0.7580    0.6971    2.7126 H       1  UNL1        0.0328
     27 H           0.4087   -0.4966    2.1952 H       1  UNL1        0.0328
     28 H           0.8716   -0.8314   -0.6126 H       1  UNL1        0.0427
     29 H           2.0222    0.0260   -1.6209 H       1  UNL1        0.0427
     30 H          -1.5747    3.1394   -2.0239 H       1  UNL1        0.0238
     31 H          -2.3025    1.6743   -2.6647 H       1  UNL1        0.0238
     32 H          -2.9853    2.4286   -1.2203 H       1  UNL1        0.0238
     33 H          -1.0402    3.5029    1.9688 H       1  UNL1        0.0233
     34 H          -2.0820    3.7213    0.5666 H       1  UNL1        0.0233
     35 H          -2.2671    2.2881    1.5812 H       1  UNL1        0.0233
     36 H           3.0115    1.0009    1.7774 H       1  UNL1        0.0470
     37 H           2.3884   -0.5921    1.4254 H       1  UNL1        0.0470
     38 H          -3.1401   -0.2271   -1.9083 H       1  UNL1        0.0657
     39 H          -1.6807   -1.9176    2.5126 H       1  UNL1        0.0622
     40 H          -3.4711   -3.0622    1.2861 H       1  UNL1        0.0654
     41 H           4.3167    1.0890   -0.3213 H       1  UNL1        0.0584
     42 H          -4.7024   -3.1030   -0.5560 H       1  UNL1        0.2921
     43 H           6.5568   -1.5734   -0.6127 H       1  UNL1        0.0274
     44 H           6.0787   -0.1059   -1.4776 H       1  UNL1        0.0274
     45 H           5.5004   -1.6798   -2.0412 H       1  UNL1        0.0274
     46 H           4.5547   -2.5763    1.1755 H       1  UNL1        0.0274
     47 H           4.1972   -3.0925   -0.4799 H       1  UNL1        0.0274
     48 H           2.9460   -2.3192    0.4528 H       1  UNL1        0.0274
@<TRIPOS>BOND
     1     1    16    1
     2     1    42    1
     3     2     5    1
     4     2     9    1
     5     2    13    1
     6     3     4    1
     7     3     6    1
     8     3     8    1
     9     3    11    1
    10     4     5    1
    11     4    12    1
    12     4    22    1
    13     5     7    1
    14     5    23    1
    15     6     9    1
    16     6    24    1
    17     6    25    1
    18     7    10    1
    19     7    26    1
    20     7    27    1
    21     8    10   ar
    22     8    14   ar
    23     9    28    1
    24     9    29    1
    25    10    15   ar
    26    11    30    1
    27    11    31    1
    28    11    32    1
    29    12    33    1
    30    12    34    1
    31    12    35    1
    32    13    18    1
    33    13    36    1
    34    13    37    1
    35    14    16   ar
    36    14    38    1
    37    15    17   ar
    38    15    39    1
    39    16    17   ar
    40    17    40    1
    41    18    19    2
    42    18    41    1
    43    19    20    1
    44    19    21    1
    45    20    43    1
    46    20    44    1
    47    20    45    1
    48    21    46    1
    49    21    47    1
    50    21    48    1
@<TRIPOS>MOLECULE
18991210
 11 11 0 0 0
SMALL
GASTEIGER

@<TRIPOS>ATOM
      1 N          -1.4903    0.3989    0.4983 N.2     1  UNL1       -0.1363
      2 N           1.4593   -0.5817    0.4299 N.2     1  UNL1       -0.1363
      3 N          -1.3832   -0.5275   -0.5477 N.2     1  UNL1       -0.0217
      4 N           0.4436   -1.3127    0.5513 N.2     1  UNL1       -0.0217
      5 N          -0.4269   -1.3405   -0.5432 N.2     1  UNL1       -0.0029
      6 C           0.5506    1.4883   -0.4392 C.2     1  UNL1       -0.0219
      7 C          -0.6239    1.3624    0.4541 C.2     1  UNL1        0.0531
      8 C           1.4709    0.5127   -0.4036 C.2     1  UNL1        0.0531
      9 H           0.6523    2.3724   -1.0540 H       1  UNL1        0.0649
     10 H          -0.7327    2.1867    1.1782 H       1  UNL1        0.0849
     11 H           2.3597    0.6068   -1.0196 H       1  UNL1        0.0849
@<TRIPOS>BOND
     1     1     3    1
     2     1     7    2
     3     2     4    2
     4     2     8    1
     5     3     5    2
     6     4     5    1
     7     6     7    1
     8     6     8    2
     9     6     9    1
    10     7    10    1
    11     8    11    1
@<TRIPOS>MOLECULE
4736
 48 50 0 0 0
SMALL
GASTEIGER

@<TRIPOS>ATOM
      1 O          -5.0699   -1.2918   -1.2051 O.3     1  UNL1       -0.5068
      2 N           1.6198    0.1170    0.1931 N.3     1  UNL1       -0.2952
      3 C          -0.8982    1.3331   -0.6951 C.3     1  UNL1       -0.0015
      4 C          -0.0513    1.8913    0.4899 C.3     1  UNL1       -0.0185
      5 C           0.6742    0.7064    1.1653 C.3     1  UNL1        0.0181
      6 C           0.0921    0.6601   -1.6863 C.3     1  UNL1       -0.0304
      7 C          -0.3562   -0.2665    1.7782 C.3     1  UNL1       -0.0114
      8 C          -1.8850    0.2601   -0.2080 C.ar    1  UNL1       -0.0344
      9 C           0.9906   -0.3936   -1.0256 C.3     1  UNL1        0.0003
     10 C          -1.5969   -0.5016    0.9468 C.ar    1  UNL1       -0.0419
     11 C          -1.5955    2.5012   -1.4269 C.3     1  UNL1       -0.0552
     12 C          -0.8470    2.7364    1.4979 C.3     1  UNL1       -0.0602
     13 C           2.5174   -0.8719    0.7816 C.3     1  UNL1        0.0176
     14 C          -3.0591   -0.0356   -0.9245 C.ar    1  UNL1       -0.0162
     15 C          -2.4946   -1.4959    1.3723 C.ar    1  UNL1       -0.0548
     16 C          -3.9388   -1.0309   -0.4939 C.ar    1  UNL1        0.1172
     17 C          -3.6589   -1.7582    0.6561 C.ar    1  UNL1       -0.0199
     18 C           3.6152   -1.2493   -0.1693 C.2     1  UNL1       -0.0713
     19 C           4.8293   -0.6834   -0.3105 C.2     1  UNL1       -0.0784
     20 C           5.8865   -1.1133   -1.2877 C.3     1  UNL1       -0.0440
     21 C           5.2265    0.4865    0.5517 C.3     1  UNL1       -0.0440
     22 H           0.7172    2.5663    0.0823 H       1  UNL1        0.0322
     23 H           1.2801    1.1104    1.9879 H       1  UNL1        0.0469
     24 H           0.7356    1.4319   -2.1319 H       1  UNL1        0.0286
     25 H          -0.4494    0.1929   -2.5194 H       1  UNL1        0.0286
     26 H          -0.6877    0.1517    2.7386 H       1  UNL1        0.0328
     27 H           0.1096   -1.2284    2.0182 H       1  UNL1        0.0328
     28 H           0.4181   -1.3076   -0.8257 H       1  UNL1        0.0427
     29 H           1.7412   -0.6612   -1.7784 H       1  UNL1        0.0427
     30 H          -0.8909    3.3179   -1.6233 H       1  UNL1        0.0238
     31 H          -1.9958    2.1938   -2.3995 H       1  UNL1        0.0238
     32 H          -2.4282    2.9082   -0.8426 H       1  UNL1        0.0238
     33 H          -0.2170    3.0064    2.3523 H       1  UNL1        0.0233
     34 H          -1.1833    3.6723    1.0404 H       1  UNL1        0.0233
     35 H          -1.7310    2.2204    1.8828 H       1  UNL1        0.0233
     36 H           2.9446   -0.5011    1.7201 H       1  UNL1        0.0470
     37 H           1.9824   -1.7914    1.0501 H       1  UNL1        0.0470
     38 H          -3.3024    0.5008   -1.8376 H       1  UNL1        0.0657
     39 H          -2.2841   -2.0740    2.2691 H       1  UNL1        0.0622
     40 H          -4.3351   -2.5343    1.0037 H       1  UNL1        0.0654
     41 H           3.3869   -2.0951   -0.8180 H       1  UNL1        0.0584
     42 H          -5.5600   -2.0084   -0.7666 H       1  UNL1        0.2921
     43 H           6.1222   -0.2989   -1.9800 H       1  UNL1        0.0274
     44 H           5.5586   -1.9729   -1.8815 H       1  UNL1        0.0274
     45 H           6.8007   -1.4010   -0.7589 H       1  UNL1        0.0274
     46 H           5.6352    1.2876   -0.0744 H       1  UNL1        0.0274
     47 H           6.0022    0.1810    1.2616 H       1  UNL1        0.0274
     48 H           4.4055    0.9315    1.1183 H       1  UNL1        0.0274
@<TRIPOS>BOND
     1     1    16    1
     2     1    42    1
     3     2     5    1
     4     2     9    1
     5     2    13    1
     6     3     4    1
     7     3     6    1
     8     3     8    1
     9     3    11    1
    10     4     5    1
    11     4    12    1
    12     4    22    1
    13     5     7    1
    14     5    23    1
    15     6     9    1
    16     6    24    1
    17     6    25    1
    18     7    10    1
    19     7    26    1
    20     7    27    1
    21     8    10   ar
    22     8    14   ar
    23     9    28    1
    24     9    29    1
    25    10    15   ar
    26    11    30    1
    27    11    31    1
    28    11    32    1
    29    12    33    1
    30    12    34    1
    31    12    35    1
    32    13    18    1
    33    13    36    1
    34    13    37    1
    35    14    16   ar
    36    14    38    1
    37    15    17   ar
    38    15    39    1
    39    16    17   ar
    40    17    40    1
    41    18    19    2
    42    18    41    1
    43    19    20    1
    44    19    21    1
    45    20    43    1
    46    20    44    1
    47    20    45    1
    48    21    46    1
    49    21    47    1
    50    21    48    1
@<TRIPOS>MOLECULE
12259685
 48 50 0 0 0
SMALL
GASTEIGER

@<TRIPOS>ATOM
      1 O           4.5475    2.2047    1.1736 O.3     1  UNL1       -0.5068
      2 N          -1.5523   -0.9065   -0.1696 N.3     1  UNL1       -0.2952
      3 C           1.2011   -1.4191    0.7047 C.3     1  UNL1       -0.0015
      4 C           0.5218   -2.1855   -0.4718 C.3     1  UNL1       -0.0185
      5 C          -0.4915   -1.2346   -1.1465 C.3     1  UNL1        0.0181
      6 C           0.0758   -1.0217    1.7006 C.3     1  UNL1       -0.0304
      7 C           0.2456   -0.0302   -1.7709 C.3     1  UNL1       -0.0114
      8 C           1.8711   -0.1288    0.2061 C.ar    1  UNL1       -0.0344
      9 C          -1.0705   -0.2425    1.0422 C.3     1  UNL1        0.0003
     10 C           1.3877    0.5246   -0.9498 C.ar    1  UNL1       -0.0419
     11 C           2.1832   -2.3608    1.4358 C.3     1  UNL1       -0.0552
     12 C           1.5040   -2.7997   -1.4823 C.3     1  UNL1       -0.0602
     13 C          -2.6803   -0.1894   -0.7554 C.3     1  UNL1        0.0176
     14 C           2.9317    0.4670    0.9129 C.ar    1  UNL1       -0.0162
     15 C           1.9928    1.7157   -1.3861 C.ar    1  UNL1       -0.0548
     16 C           3.5189    1.6544    0.4718 C.ar    1  UNL1        0.1172
     17 C           3.0527    2.2765   -0.6793 C.ar    1  UNL1       -0.0199
     18 C          -3.8326   -0.1058    0.2021 C.2     1  UNL1       -0.0713
     19 C          -4.7688    0.8576    0.3005 C.2     1  UNL1       -0.0784
     20 C          -5.9014    0.8792    1.2876 C.3     1  UNL1       -0.0440
     21 C          -4.7363    2.0451   -0.6261 C.3     1  UNL1       -0.0440
     22 H          -0.0415   -3.0351   -0.0557 H       1  UNL1        0.0322
     23 H          -0.9760   -1.7870   -1.9634 H       1  UNL1        0.0469
     24 H           0.4819   -0.4243    2.5274 H       1  UNL1        0.0286
     25 H          -0.3416   -1.9316    2.1543 H       1  UNL1        0.0286
     26 H          -0.4531    0.7765   -2.0153 H       1  UNL1        0.0328
     27 H           0.6704   -0.3549   -2.7308 H       1  UNL1        0.0328
     28 H          -1.8602   -0.1681    1.7989 H       1  UNL1        0.0427
     29 H          -0.7550    0.7868    0.8318 H       1  UNL1        0.0427
     30 H           3.0896   -2.5400    0.8469 H       1  UNL1        0.0238
     31 H           2.4956   -1.9541    2.4042 H       1  UNL1        0.0238
     32 H           1.7173   -3.3317    1.6407 H       1  UNL1        0.0238
     33 H           0.9609   -3.2293   -2.3312 H       1  UNL1        0.0233
     34 H           2.2208   -2.0735   -1.8755 H       1  UNL1        0.0233
     35 H           2.0753   -3.6132   -1.0237 H       1  UNL1        0.0233
     36 H          -2.3687    0.8097   -1.0717 H       1  UNL1        0.0470
     37 H          -3.0339   -0.7311   -1.6411 H       1  UNL1        0.0470
     38 H           3.3117    0.0179    1.8265 H       1  UNL1        0.0657
     39 H           1.6336    2.2137   -2.2838 H       1  UNL1        0.0622
     40 H           3.5014    3.1999   -1.0352 H       1  UNL1        0.0654
     41 H          -3.9485   -0.9594    0.8712 H       1  UNL1        0.0584
     42 H           4.8316    3.0216    0.7286 H       1  UNL1        0.2921
     43 H          -5.8484    1.7788    1.9091 H       1  UNL1        0.0274
     44 H          -5.8707    0.0105    1.9534 H       1  UNL1        0.0274
     45 H          -6.8642    0.8680    0.7668 H       1  UNL1        0.0274
     46 H          -4.3804    2.9302   -0.0890 H       1  UNL1        0.0274
     47 H          -5.7456    2.2565   -0.9977 H       1  UNL1        0.0274
     48 H          -4.1134    1.9046   -1.5125 H       1  UNL1        0.0274
@<TRIPOS>BOND
     1     1    16    1
     2     1    42    1
     3     2     5    1
     4     2     9    1
     5     2    13    1
     6     3     4    1
     7     3     6    1
     8     3     8    1
     9     3    11    1
    10     4     5    1
    11     4    12    1
    12     4    22    1
    13     5     7    1
    14     5    23    1
    15     6     9    1
    16     6    24    1
    17     6    25    1
    18     7    10    1
    19     7    26    1
    20     7    27    1
    21     8    10   ar
    22     8    14   ar
    23     9    28    1
    24     9    29    1
    25    10    15   ar
    26    11    30    1
    27    11    31    1
    28    11    32    1
    29    12    33    1
    30    12    34    1
    31    12    35    1
    32    13    18    1
    33    13    36    1
    34    13    37    1
    35    14    16   ar
    36    14    38    1
    37    15    17   ar
    38    15    39    1
    39    16    17   ar
    40    17    40    1
    41    18    19    2
    42    18    41    1
    43    19    20    1
    44    19    21    1
    45    20    43    1
    46    20    44    1
    47    20    45    1
    48    21    46    1
    49    21    47    1
    50    21    48    1
@<TRIPOS>MOLECULE
71717297
 48 50 0 0 0
SMALL
GASTEIGER

@<TRIPOS>ATOM
      1 O           4.6726   -2.0358   -1.1219 O.3     1  UNL1       -0.5068
      2 N          -1.5998    0.7025    0.2376 N.3     1  UNL1       -0.2952
      3 C           1.0620    1.3436   -0.8166 C.3     1  UNL1       -0.0015
      4 C           0.3726    2.1625    0.3179 C.3     1  UNL1       -0.0185
      5 C          -0.5291    1.2035    1.1262 C.3     1  UNL1        0.0181
      6 C          -0.0682    0.7669   -1.7146 C.3     1  UNL1       -0.0304
      7 C           0.3309    0.1251    1.8197 C.3     1  UNL1       -0.0114
      8 C           1.8568    0.1628   -0.2370 C.ar    1  UNL1       -0.0344
      9 C          -1.1170   -0.0336   -0.9315 C.3     1  UNL1        0.0003
     10 C           1.4787   -0.4141    0.9963 C.ar    1  UNL1       -0.0419
     11 C           1.9311    2.2857   -1.6787 C.3     1  UNL1       -0.0552
     12 C           1.3431    2.9445    1.2179 C.3     1  UNL1       -0.0602
     13 C          -2.6389   -0.0418    0.9421 C.3     1  UNL1        0.0176
     14 C           2.9318   -0.4126   -0.9391 C.ar    1  UNL1       -0.0162
     15 C           2.1982   -1.5076    1.5082 C.ar    1  UNL1       -0.0548
     16 C           3.6332   -1.5034   -0.4219 C.ar    1  UNL1        0.1172
     17 C           3.2696   -2.0483    0.8031 C.ar    1  UNL1       -0.0199
     18 C          -3.9708    0.1046    0.2664 C.2     1  UNL1       -0.0713
     19 C          -4.7539   -0.8599   -0.2541 C.2     1  UNL1       -0.0784
     20 C          -4.3200   -2.3016   -0.1999 C.3     1  UNL1       -0.0440
     21 C          -6.0831   -0.6431   -0.9202 C.3     1  UNL1       -0.0440
     22 H          -0.2761    2.9223   -0.1449 H       1  UNL1        0.0322
     23 H          -1.0198    1.7943    1.9119 H       1  UNL1        0.0469
     24 H           0.3496    0.1277   -2.5034 H       1  UNL1        0.0286
     25 H          -0.5786    1.5944   -2.2272 H       1  UNL1        0.0286
     26 H          -0.2974   -0.7071    2.1577 H       1  UNL1        0.0328
     27 H           0.7633    0.5653    2.7286 H       1  UNL1        0.0328
     28 H          -1.9465   -0.2391   -1.6192 H       1  UNL1        0.0427
     29 H          -0.7095   -1.0112   -0.6468 H       1  UNL1        0.0427
     30 H           1.3786    3.1942   -1.9461 H       1  UNL1        0.0238
     31 H           2.2329    1.8157   -2.6214 H       1  UNL1        0.0238
     32 H           2.8446    2.5892   -1.1553 H       1  UNL1        0.0238
     33 H           2.1325    2.3167    1.6403 H       1  UNL1        0.0233
     34 H           0.8029    3.4101    2.0494 H       1  UNL1        0.0233
     35 H           1.8264    3.7522    0.6588 H       1  UNL1        0.0233
     36 H          -2.3433   -1.0790    1.1222 H       1  UNL1        0.0470
     37 H          -2.7836    0.3878    1.9431 H       1  UNL1        0.0470
     38 H           3.2279   -0.0186   -1.9074 H       1  UNL1        0.0657
     39 H           1.9199   -1.9449    2.4642 H       1  UNL1        0.0622
     40 H           3.8118   -2.8960    1.2125 H       1  UNL1        0.0654
     41 H          -4.3383    1.1288    0.2016 H       1  UNL1        0.0584
     42 H           4.7874   -1.5357   -1.9481 H       1  UNL1        0.2921
     43 H          -3.2403   -2.4416   -0.1169 H       1  UNL1        0.0274
     44 H          -4.6124   -2.8161   -1.1227 H       1  UNL1        0.0274
     45 H          -4.8083   -2.8101    0.6375 H       1  UNL1        0.0274
     46 H          -6.3675    0.4143   -0.9133 H       1  UNL1        0.0274
     47 H          -6.8664   -1.2035   -0.3999 H       1  UNL1        0.0274
     48 H          -6.0479   -0.9730   -1.9633 H       1  UNL1        0.0274
@<TRIPOS>BOND
     1     1    16    1
     2     1    42    1
     3     2     5    1
     4     2     9    1
     5     2    13    1
     6     3     4    1
     7     3     6    1
     8     3     8    1
     9     3    11    1
    10     4     5    1
    11     4    12    1
    12     4    22    1
    13     5     7    1
    14     5    23    1
    15     6     9    1
    16     6    24    1
    17     6    25    1
    18     7    10    1
    19     7    26    1
    20     7    27    1
    21     8    10   ar
    22     8    14   ar
    23     9    28    1
    24     9    29    1
    25    10    15   ar
    26    11    30    1
    27    11    31    1
    28    11    32    1
    29    12    33    1
    30    12    34    1
    31    12    35    1
    32    13    18    1
    33    13    36    1
    34    13    37    1
    35    14    16   ar
    36    14    38    1
    37    15    17   ar
    38    15    39    1
    39    16    17   ar
    40    17    40    1
    41    18    19    2
    42    18    41    1
    43    19    20    1
    44    19    21    1
    45    20    43    1
    46    20    44    1
    47    20    45    1
    48    21    46    1
    49    21    47    1
    50    21    48    1
@<TRIPOS>MOLECULE
90672058
 51 53 0 0 0
SMALL
GASTEIGER

@<TRIPOS>ATOM
      1 O           4.5720   -2.0197   -0.4183 O.3     1  UNL1       -0.3891
      2 O          -5.1142   -1.8721   -1.0865 O.3     1  UNL1       -0.5068
      3 N           1.2830    0.7094   -0.0390 N.3     1  UNL1       -0.2987
      4 C          -1.5002    1.4764   -0.5614 C.3     1  UNL1       -0.0015
      5 C          -0.6607    2.0586    0.6173 C.3     1  UNL1       -0.0185
      6 C           0.3458    0.9788    1.0728 C.3     1  UNL1        0.0177
      7 C          -0.5052    1.1371   -1.7063 C.3     1  UNL1       -0.0305
      8 C          -0.4082   -0.2474    1.6307 C.3     1  UNL1       -0.0115
      9 C           0.6433    0.2221   -1.2615 C.3     1  UNL1       -0.0000
     10 C          -2.2053    0.1760   -0.1443 C.ar    1  UNL1       -0.0344
     11 C          -1.6585   -0.6362    0.8746 C.ar    1  UNL1       -0.0419
     12 C          -2.4817    2.5521   -1.0770 C.3     1  UNL1       -0.0552
     13 C          -1.4974    2.6032    1.7863 C.3     1  UNL1       -0.0602
     14 C           2.4107   -0.1347    0.3431 C.3     1  UNL1        0.0018
     15 C          -3.3671   -0.2709   -0.8001 C.ar    1  UNL1       -0.0162
     16 C           3.6340    0.1989   -0.5178 C.3     1  UNL1       -0.0117
     17 C          -2.2983   -1.8348    1.2342 C.ar    1  UNL1       -0.0548
     18 C           4.8862   -0.6432   -0.1962 C.3     1  UNL1        0.0617
     19 C          -3.9885   -1.4675   -0.4370 C.ar    1  UNL1        0.1172
     20 C          -3.4569   -2.2474    0.5824 C.ar    1  UNL1       -0.0199
     21 C           5.3448   -0.4784    1.2543 C.3     1  UNL1       -0.0363
     22 C           6.0224   -0.2604   -1.1504 C.3     1  UNL1       -0.0363
     23 H          -0.0835    2.9184    0.2432 H       1  UNL1        0.0322
     24 H           0.9403    1.4058    1.8922 H       1  UNL1        0.0469
     25 H          -0.0722    2.0695   -2.0954 H       1  UNL1        0.0286
     26 H          -1.0282    0.6660   -2.5489 H       1  UNL1        0.0286
     27 H          -0.7100   -0.0230    2.6629 H       1  UNL1        0.0328
     28 H           0.2631   -1.1120    1.6936 H       1  UNL1        0.0328
     29 H           0.2788   -0.8049   -1.1373 H       1  UNL1        0.0427
     30 H           1.3563    0.1906   -2.0921 H       1  UNL1        0.0427
     31 H          -1.9727    3.5129   -1.2172 H       1  UNL1        0.0238
     32 H          -3.3139    2.7103   -0.3821 H       1  UNL1        0.0238
     33 H          -2.9112    2.2823   -2.0484 H       1  UNL1        0.0238
     34 H          -2.0549    3.4952    1.4829 H       1  UNL1        0.0233
     35 H          -0.8474    2.8995    2.6167 H       1  UNL1        0.0233
     36 H          -2.2196    1.8764    2.1685 H       1  UNL1        0.0233
     37 H           2.1596   -1.2003    0.2783 H       1  UNL1        0.0427
     38 H           2.6743    0.0644    1.3881 H       1  UNL1        0.0427
     39 H          -3.7958    0.3092   -1.6127 H       1  UNL1        0.0657
     40 H           3.3921    0.0343   -1.5743 H       1  UNL1        0.0305
     41 H           3.8749    1.2649   -0.4082 H       1  UNL1        0.0305
     42 H          -1.8890   -2.4553    2.0281 H       1  UNL1        0.0622
     43 H          -3.9357   -3.1787    0.8713 H       1  UNL1        0.0654
     44 H           4.6216   -0.9062    1.9563 H       1  UNL1        0.0257
     45 H           6.2821   -1.0201    1.4283 H       1  UNL1        0.0257
     46 H           5.5069    0.5741    1.5083 H       1  UNL1        0.0257
     47 H           5.7308   -0.4315   -2.1930 H       1  UNL1        0.0257
     48 H           6.3074    0.7906   -1.0365 H       1  UNL1        0.0257
     49 H           6.9089   -0.8803   -0.9740 H       1  UNL1        0.0257
     50 H           5.3658   -2.5452   -0.2197 H       1  UNL1        0.2101
     51 H          -5.3438   -1.2127   -1.7636 H       1  UNL1        0.2921
@<TRIPOS>BOND
     1     1    18    1
     2     1    50    1
     3     2    19    1
     4     2    51    1
     5     3     6    1
     6     3     9    1
     7     3    14    1
     8     4     5    1
     9     4     7    1
    10     4    10    1
    11     4    12    1
    12     5     6    1
    13     5    13    1
    14     5    23    1
    15     6     8    1
    16     6    24    1
    17     7     9    1
    18     7    25    1
    19     7    26    1
    20     8    11    1
    21     8    27    1
    22     8    28    1
    23     9    29    1
    24     9    30    1
    25    10    11   ar
    26    10    15   ar
    27    11    17   ar
    28    12    31    1
    29    12    32    1
    30    12    33    1
    31    13    34    1
    32    13    35    1
    33    13    36    1
    34    14    16    1
    35    14    37    1
    36    14    38    1
    37    15    19   ar
    38    15    39    1
    39    16    18    1
    40    16    40    1
    41    16    41    1
    42    17    20   ar
    43    17    42    1
    44    18    21    1
    45    18    22    1
    46    19    20   ar
    47    20    43    1
    48    21    44    1
    49    21    45    1
    50    21    46    1
    51    22    47    1
    52    22    48    1
    53    22    49    1
@<TRIPOS>MOLECULE
9669
 48 50 0 0 0
SMALL
GASTEIGER

@<TRIPOS>ATOM
      1 O          -5.0816    1.4533    0.3456 O.3     1  UNL1       -0.5068
      2 N           1.4521   -0.9441    0.8841 N.3     1  UNL1       -0.2952
      3 C          -1.2024   -1.6045   -0.1653 C.3     1  UNL1       -0.0015
      4 C           0.0750   -1.6047   -1.0679 C.3     1  UNL1       -0.0185
      5 C           1.0661   -0.5679   -0.4910 C.3     1  UNL1        0.0181
      6 C          -0.7963   -1.9245    1.2971 C.3     1  UNL1       -0.0304
      7 C           0.4603    0.8388   -0.6734 C.3     1  UNL1       -0.0114
      8 C          -1.8308   -0.1938   -0.1836 C.ar    1  UNL1       -0.0344
      9 C           0.3308   -1.0241    1.8216 C.3     1  UNL1        0.0003
     10 C          -1.0221    0.9440   -0.4033 C.ar    1  UNL1       -0.0419
     11 C          -2.1934   -2.6824   -0.6591 C.3     1  UNL1       -0.0552
     12 C           0.7608   -2.9704   -1.2429 C.3     1  UNL1       -0.0602
     13 C           2.5369   -0.1302    1.4238 C.3     1  UNL1        0.0176
     14 C          -3.1979    0.0100    0.0828 C.ar    1  UNL1       -0.0162
     15 C          -1.5962    2.2275   -0.3986 C.ar    1  UNL1       -0.0548
     16 C          -3.7541    1.2913    0.0912 C.ar    1  UNL1        0.1172
     17 C          -2.9549    2.3998   -0.1545 C.ar    1  UNL1       -0.0199
     18 C           3.6879   -0.0465    0.4647 C.2     1  UNL1       -0.0713
     19 C           4.2221    1.0507   -0.1054 C.2     1  UNL1       -0.0784
     20 C           5.3804    1.0633   -1.0623 C.3     1  UNL1       -0.0440
     21 C           3.6572    2.4143    0.1963 C.3     1  UNL1       -0.0440
     22 H          -0.2114   -1.2816   -2.0806 H       1  UNL1        0.0322
     23 H           1.9500   -0.6160   -1.1385 H       1  UNL1        0.0469
     24 H          -0.4707   -2.9702    1.3712 H       1  UNL1        0.0286
     25 H          -1.6611   -1.8324    1.9674 H       1  UNL1        0.0286
     26 H           0.6180    1.1411   -1.7180 H       1  UNL1        0.0328
     27 H           0.9841    1.5741   -0.0567 H       1  UNL1        0.0328
     28 H          -0.0630   -0.0277    2.0566 H       1  UNL1        0.0427
     29 H           0.6781   -1.4466    2.7731 H       1  UNL1        0.0427
     30 H          -1.7436   -3.6803   -0.6614 H       1  UNL1        0.0238
     31 H          -3.0735   -2.7649   -0.0130 H       1  UNL1        0.0238
     32 H          -2.5400   -2.4649   -1.6758 H       1  UNL1        0.0238
     33 H           1.0096   -3.4448   -0.2896 H       1  UNL1        0.0233
     34 H           0.1296   -3.6592   -1.8124 H       1  UNL1        0.0233
     35 H           1.6921   -2.8600   -1.8099 H       1  UNL1        0.0233
     36 H           2.1607    0.8435    1.7413 H       1  UNL1        0.0470
     37 H           2.9191   -0.6102    2.3342 H       1  UNL1        0.0470
     38 H          -3.8555   -0.8265    0.3003 H       1  UNL1        0.0657
     39 H          -0.9774    3.1028   -0.5829 H       1  UNL1        0.0622
     40 H          -3.3739    3.4020   -0.1525 H       1  UNL1        0.0654
     41 H           4.1448   -1.0049    0.2166 H       1  UNL1        0.0584
     42 H          -5.2957    2.4016    0.3135 H       1  UNL1        0.2921
     43 H           5.0827    1.5121   -2.0153 H       1  UNL1        0.0274
     44 H           5.7417    0.0504   -1.2680 H       1  UNL1        0.0274
     45 H           6.2144    1.6385   -0.6477 H       1  UNL1        0.0274
     46 H           3.0848    2.7791   -0.6630 H       1  UNL1        0.0274
     47 H           4.4781    3.1201    0.3710 H       1  UNL1        0.0274
     48 H           3.0268    2.4779    1.0827 H       1  UNL1        0.0274
@<TRIPOS>BOND
     1     1    16    1
     2     1    42    1
     3     2     5    1
     4     2     9    1
     5     2    13    1
     6     3     4    1
     7     3     6    1
     8     3     8    1
     9     3    11    1
    10     4     5    1
    11     4    12    1
    12     4    22    1
    13     5     7    1
    14     5    23    1
    15     6     9    1
    16     6    24    1
    17     6    25    1
    18     7    10    1
    19     7    26    1
    20     7    27    1
    21     8    10   ar
    22     8    14   ar
    23     9    28    1
    24     9    29    1
    25    10    15   ar
    26    11    30    1
    27    11    31    1
    28    11    32    1
    29    12    33    1
    30    12    34    1
    31    12    35    1
    32    13    18    1
    33    13    36    1
    34    13    37    1
    35    14    16   ar
    36    14    38    1
    37    15    17   ar
    38    15    39    1
    39    16    17   ar
    40    17    40    1
    41    18    19    2
    42    18    41    1
    43    19    20    1
    44    19    21    1
    45    20    43    1
    46    20    44    1
    47    20    45    1
    48    21    46    1
    49    21    47    1
    50    21    48    1
@<TRIPOS>MOLECULE
542181
 51 53 0 0 0
SMALL
GASTEIGER

@<TRIPOS>ATOM
      1 O          -4.4341   -1.6579   -0.9312 O.3     1  UNL1       -0.4951
      2 N           1.9617    0.8967    0.1909 N.3     1  UNL1       -0.2952
      3 C          -0.6853    1.5820   -0.8728 C.3     1  UNL1       -0.0015
      4 C           0.0514    2.4393    0.2020 C.3     1  UNL1       -0.0185
      5 C           0.9239    1.4949    1.0581 C.3     1  UNL1        0.0181
      6 C           0.4088    0.9055   -1.7454 C.3     1  UNL1       -0.0304
      7 C           0.0298    0.4971    1.8256 C.3     1  UNL1       -0.0114
      8 C          -1.5199    0.4724   -0.2135 C.ar    1  UNL1       -0.0344
      9 C           1.4343    0.1115   -0.9258 C.3     1  UNL1        0.0003
     10 C          -1.1492   -0.0436    1.0488 C.ar    1  UNL1       -0.0419
     11 C          -1.5265    2.5050   -1.7821 C.3     1  UNL1       -0.0552
     12 C          -0.8748    3.3142    1.0622 C.3     1  UNL1       -0.0602
     13 C           2.9785    0.1541    0.9288 C.3     1  UNL1        0.0176
     14 C          -2.6266   -0.0994   -0.8674 C.ar    1  UNL1       -0.0160
     15 C          -1.9055   -1.0735    1.6341 C.ar    1  UNL1       -0.0548
     16 C          -3.3649   -1.1270   -0.2768 C.ar    1  UNL1        0.1204
     17 C          -3.0072   -1.6114    0.9751 C.ar    1  UNL1       -0.0197
     18 C           4.1366   -0.2118    0.0475 C.2     1  UNL1       -0.0713
     19 C           4.6009   -1.4394   -0.2550 C.2     1  UNL1       -0.0784
     20 C           5.7712   -1.7363   -1.1492 C.3     1  UNL1       -0.0440
     21 C           3.9384   -2.6645    0.3197 C.3     1  UNL1       -0.0440
     22 C          -5.1415   -2.7080   -0.2738 C.3     1  UNL1        0.0788
     23 H           0.7244    3.1420   -0.3134 H       1  UNL1        0.0322
     24 H           1.4507    2.1083    1.8019 H       1  UNL1        0.0469
     25 H           0.9452    1.6787   -2.3134 H       1  UNL1        0.0286
     26 H          -0.0453    0.2373   -2.4889 H       1  UNL1        0.0286
     27 H          -0.3772    1.0155    2.7048 H       1  UNL1        0.0328
     28 H           0.6180   -0.3371    2.2213 H       1  UNL1        0.0328
     29 H           0.9927   -0.8299   -0.5764 H       1  UNL1        0.0427
     30 H           2.2296   -0.1656   -1.6274 H       1  UNL1        0.0427
     31 H          -0.9407    3.3710   -2.1118 H       1  UNL1        0.0238
     32 H          -1.8608    1.9904   -2.6899 H       1  UNL1        0.0238
     33 H          -2.4194    2.8783   -1.2683 H       1  UNL1        0.0238
     34 H          -0.3057    3.8056    1.8589 H       1  UNL1        0.0233
     35 H          -1.3308    4.1065    0.4598 H       1  UNL1        0.0233
     36 H          -1.6846    2.7469    1.5293 H       1  UNL1        0.0233
     37 H           3.3859    0.7945    1.7220 H       1  UNL1        0.0470
     38 H           2.5574   -0.7159    1.4362 H       1  UNL1        0.0470
     39 H          -2.9258    0.2419   -1.8546 H       1  UNL1        0.0657
     40 H          -1.6318   -1.4623    2.6125 H       1  UNL1        0.0622
     41 H          -3.5357   -2.4042    1.4931 H       1  UNL1        0.0654
     42 H           4.6609    0.6373   -0.3912 H       1  UNL1        0.0584
     43 H           5.4520   -2.3217   -2.0174 H       1  UNL1        0.0274
     44 H           6.2368   -0.8168   -1.5191 H       1  UNL1        0.0274
     45 H           6.5340   -2.3017   -0.6042 H       1  UNL1        0.0274
     46 H           2.8731   -2.5345    0.5241 H       1  UNL1        0.0274
     47 H           4.0002   -3.4965   -0.3915 H       1  UNL1        0.0274
     48 H           4.4456   -2.9718    1.2397 H       1  UNL1        0.0274
     49 H          -4.5075   -3.5886   -0.1243 H       1  UNL1        0.0660
     50 H          -5.9585   -3.0115   -0.9365 H       1  UNL1        0.0660
     51 H          -5.5989   -2.3624    0.6595 H       1  UNL1        0.0660
@<TRIPOS>BOND
     1     1    16    1
     2     1    22    1
     3     2     5    1
     4     2     9    1
     5     2    13    1
     6     3     4    1
     7     3     6    1
     8     3     8    1
     9     3    11    1
    10     4     5    1
    11     4    12    1
    12     4    23    1
    13     5     7    1
    14     5    24    1
    15     6     9    1
    16     6    25    1
    17     6    26    1
    18     7    10    1
    19     7    27    1
    20     7    28    1
    21     8    10   ar
    22     8    14   ar
    23     9    29    1
    24     9    30    1
    25    10    15   ar
    26    11    31    1
    27    11    32    1
    28    11    33    1
    29    12    34    1
    30    12    35    1
    31    12    36    1
    32    13    18    1
    33    13    37    1
    34    13    38    1
    35    14    16   ar
    36    14    39    1
    37    15    17   ar
    38    15    40    1
    39    16    17   ar
    40    17    41    1
    41    18    19    2
    42    18    42    1
    43    19    20    1
    44    19    21    1
    45    20    43    1
    46    20    44    1
    47    20    45    1
    48    21    46    1
    49    21    47    1
    50    21    48    1
    51    22    49    1
    52    22    50    1
    53    22    51    1
@<TRIPOS>MOLECULE
137224275
 11 11 0 0 0
SMALL
GASTEIGER

@<TRIPOS>ATOM
      1 CL         -2.8562    0.0528   -0.5607 Cl      1  UNL1       -0.0600
      2 N          -0.7977   -0.8765    0.8071 N.2     1  UNL1       -0.1163
      3 N           1.8127    0.6861    0.2227 N.2     1  UNL1       -0.1363
      4 N           0.3355   -1.3907    0.6269 N.2     1  UNL1       -0.0203
      5 N           1.6373   -0.2273   -0.8256 N.2     1  UNL1       -0.0217
      6 N           0.8933   -1.2221   -0.6444 N.2     1  UNL1       -0.0029
      7 C          -0.5708    1.3390   -0.1340 C.2     1  UNL1       -0.0031
      8 C          -1.2419    0.1912    0.0596 C.2     1  UNL1        0.1547
      9 C           0.7879    1.4474    0.4484 C.2     1  UNL1        0.0546
     10 H          -0.9746    2.1973   -0.6557 H       1  UNL1        0.0664
     11 H           0.9036    2.2651    1.1788 H       1  UNL1        0.0849
@<TRIPOS>BOND
     1     1     8    1
     2     2     4    2
     3     2     8    1
     4     3     5    1
     5     3     9    2
     6     4     6    1
     7     5     6    2
     8     7     8    2
     9     7     9    1
    10     7    10    1
    11     9    11    1
@<TRIPOS>MOLECULE
625732
 60 62 0 0 0
SMALL
GASTEIGER

@<TRIPOS>ATOM
      1 SI          5.3975    0.9845    0.2944 Si      1  UNL1        0.0000
      2 O           3.7710    1.0570    0.6842 O.3     1  UNL1        0.0000
      3 N          -2.9218   -0.7463   -0.1195 N.3     1  UNL1        0.0000
      4 C          -0.3368   -1.7067    0.8822 C.3     1  UNL1        0.0000
      5 C          -1.2108   -2.5073   -0.1318 C.3     1  UNL1        0.0000
      6 C          -1.9963   -1.4962   -0.9960 C.3     1  UNL1        0.0000
      7 C          -1.3084   -0.8719    1.7627 C.3     1  UNL1        0.0000
      8 C           0.5985   -0.7305    0.1508 C.ar    1  UNL1        0.0000
      9 C          -1.0195   -0.6420   -1.8327 C.3     1  UNL1        0.0000
     10 C          -2.2624    0.0097    0.9460 C.3     1  UNL1        0.0000
     11 C           0.2445   -0.2199   -1.1183 C.ar    1  UNL1        0.0000
     12 C           0.4223   -2.6907    1.7994 C.3     1  UNL1        0.0000
     13 C          -0.4290   -3.5180   -0.9864 C.3     1  UNL1        0.0000
     14 C          -3.8703    0.0861   -0.8526 C.3     1  UNL1        0.0000
     15 C           1.7894   -0.2727    0.7439 C.ar    1  UNL1        0.0000
     16 C           1.0955    0.6889   -1.7701 C.ar    1  UNL1        0.0000
     17 C           2.6219    0.6360    0.0878 C.ar    1  UNL1        0.0000
     18 C           2.2777    1.1136   -1.1704 C.ar    1  UNL1        0.0000
     19 C          -4.9421    0.6206    0.0514 C.2     1  UNL1        0.0000
     20 C          -5.2472    1.9055    0.3164 C.2     1  UNL1        0.0000
     21 C          -6.3389    2.3734    1.2367 C.3     1  UNL1        0.0000
     22 C          -4.4660    3.0200   -0.3294 C.3     1  UNL1        0.0000
     23 C           6.4548    1.8185    1.6063 C.3     1  UNL1        0.0000
     24 C           5.9742   -0.7922    0.0836 C.3     1  UNL1        0.0000
     25 C           5.7019    1.8806   -1.3386 C.3     1  UNL1        0.0000
     26 H          -1.9426   -3.1045    0.4338 H       1  UNL1        0.0000
     27 H          -2.6204   -2.0682   -1.6962 H       1  UNL1        0.0000
     28 H          -0.7498   -0.2366    2.4627 H       1  UNL1        0.0000
     29 H          -1.9111   -1.5535    2.3793 H       1  UNL1        0.0000
     30 H          -1.5186    0.2424   -2.2416 H       1  UNL1        0.0000
     31 H          -0.7111   -1.2370   -2.7035 H       1  UNL1        0.0000
     32 H          -2.9918    0.4061    1.6619 H       1  UNL1        0.0000
     33 H          -1.7254    0.8775    0.5441 H       1  UNL1        0.0000
     34 H           1.2443   -3.1872    1.2717 H       1  UNL1        0.0000
     35 H           0.8498   -2.1878    2.6741 H       1  UNL1        0.0000
     36 H          -0.2495   -3.4674    2.1833 H       1  UNL1        0.0000
     37 H          -1.0825   -3.9657   -1.7431 H       1  UNL1        0.0000
     38 H           0.4244   -3.0697   -1.5028 H       1  UNL1        0.0000
     39 H          -0.0481   -4.3373   -0.3680 H       1  UNL1        0.0000
     40 H          -3.3681    0.8801   -1.4087 H       1  UNL1        0.0000
     41 H          -4.3809   -0.5290   -1.6049 H       1  UNL1        0.0000
     42 H           2.0824   -0.6117    1.7337 H       1  UNL1        0.0000
     43 H           0.8318    1.0763   -2.7516 H       1  UNL1        0.0000
     44 H           2.8969    1.8360   -1.6917 H       1  UNL1        0.0000
     45 H          -5.5457   -0.1427    0.5427 H       1  UNL1        0.0000
     46 H          -7.0500    3.0050    0.6948 H       1  UNL1        0.0000
     47 H          -6.8952    1.5307    1.6601 H       1  UNL1        0.0000
     48 H          -5.9194    2.9486    2.0683 H       1  UNL1        0.0000
     49 H          -3.4316    2.7560   -0.5616 H       1  UNL1        0.0000
     50 H          -4.9664    3.3509   -1.2449 H       1  UNL1        0.0000
     51 H          -4.4030    3.8796    0.3481 H       1  UNL1        0.0000
     52 H           6.3299    1.3210    2.5726 H       1  UNL1        0.0000
     53 H           6.1682    2.8680    1.7204 H       1  UNL1        0.0000
     54 H           7.5131    1.7781    1.3326 H       1  UNL1        0.0000
     55 H           7.0352   -0.8249   -0.1810 H       1  UNL1        0.0000
     56 H           5.4065   -1.2897   -0.7083 H       1  UNL1        0.0000
     57 H           5.8331   -1.3537    1.0118 H       1  UNL1        0.0000
     58 H           5.2985    2.8966   -1.3002 H       1  UNL1        0.0000
     59 H           6.7754    1.9443   -1.5402 H       1  UNL1        0.0000
     60 H           5.2327    1.3467   -2.1697 H       1  UNL1        0.0000
@<TRIPOS>BOND
     1     1     2    1
     2     1    23    1
     3     1    24    1
     4     1    25    1
     5     2    17    1
     6     3     6    1
     7     3    10    1
     8     3    14    1
     9     4     5    1
    10     4     7    1
    11     4     8    1
    12     4    12    1
    13     5     6    1
    14     5    13    1
    15     5    26    1
    16     6     9    1
    17     6    27    1
    18     7    10    1
    19     7    28    1
    20     7    29    1
    21     8    11   ar
    22     8    15   ar
    23     9    11    1
    24     9    30    1
    25     9    31    1
    26    10    32    1
    27    10    33    1
    28    11    16   ar
    29    12    34    1
    30    12    35    1
    31    12    36    1
    32    13    37    1
    33    13    38    1
    34    13    39    1
    35    14    19    1
    36    14    40    1
    37    14    41    1
    38    15    17   ar
    39    15    42    1
    40    16    18   ar
    41    16    43    1
    42    17    18   ar
    43    18    44    1
    44    19    20    2
    45    19    45    1
    46    20    21    1
    47    20    22    1
    48    21    46    1
    49    21    47    1
    50    21    48    1
    51    22    49    1
    52    22    50    1
    53    22    51    1
    54    23    52    1
    55    23    53    1
    56    23    54    1
    57    24    55    1
    58    24    56    1
    59    24    57    1
    60    25    58    1
    61    25    59    1
    62    25    60    1
@<TRIPOS>MOLECULE
91753913
 56 58 0 0 0
SMALL
GASTEIGER

@<TRIPOS>ATOM
      1 O          -4.3104    0.1075    0.2349 O.3     1  UNL1       -0.4258
      2 O          -3.6381   -2.0571   -0.3393 O.2     1  UNL1       -0.2504
      3 N           2.6598    0.4350    0.0268 N.3     1  UNL1       -0.2952
      4 C           0.2268    1.7182   -0.9820 C.3     1  UNL1       -0.0015
      5 C           1.3396    2.5171   -0.2271 C.3     1  UNL1       -0.0185
      6 C           2.0316    1.5515    0.7620 C.3     1  UNL1        0.0181
      7 C           0.8664    0.4984   -1.6953 C.3     1  UNL1       -0.0304
      8 C           1.0166    1.1666    1.8579 C.3     1  UNL1       -0.0114
      9 C          -0.7933    1.1830    0.0468 C.ar    1  UNL1       -0.0344
     10 C           1.7227   -0.3673   -0.7610 C.3     1  UNL1        0.0003
     11 C          -0.3910    0.9101    1.3736 C.ar    1  UNL1       -0.0419
     12 C          -0.4430    2.6240   -2.0395 C.3     1  UNL1       -0.0552
     13 C           2.3793    3.2106   -1.1239 C.3     1  UNL1       -0.0602
     14 C           3.5034   -0.4091    0.8672 C.3     1  UNL1        0.0176
     15 C          -2.1215    0.8875   -0.3140 C.ar    1  UNL1       -0.0153
     16 C          -1.3191    0.4034    2.3006 C.ar    1  UNL1       -0.0548
     17 C          -3.0312    0.3768    0.6149 C.ar    1  UNL1        0.1319
     18 C          -2.6319    0.1395    1.9234 C.ar    1  UNL1       -0.0190
     19 C           4.6333   -1.0079    0.0820 C.2     1  UNL1       -0.0713
     20 C           4.9102   -2.3101   -0.1230 C.2     1  UNL1       -0.0784
     21 C           4.0296   -3.3765    0.4746 C.3     1  UNL1       -0.0440
     22 C           6.0640   -2.8438   -0.9239 C.3     1  UNL1       -0.0440
     23 C          -4.5065   -1.1999   -0.2486 C.2     1  UNL1        0.3121
     24 C          -5.9567   -1.3786   -0.6368 C.3     1  UNL1        0.0425
     25 C          -6.2407   -2.7791   -1.1503 C.3     1  UNL1       -0.0552
     26 H           0.8623    3.3211    0.3538 H       1  UNL1        0.0322
     27 H           2.8400    2.1070    1.2577 H       1  UNL1        0.0469
     28 H           1.4957    0.8427   -2.5264 H       1  UNL1        0.0286
     29 H           0.0915   -0.1337   -2.1490 H       1  UNL1        0.0286
     30 H           0.9604    2.0020    2.5699 H       1  UNL1        0.0328
     31 H           1.3743    0.3013    2.4277 H       1  UNL1        0.0328
     32 H           1.0757   -0.9720   -0.1137 H       1  UNL1        0.0427
     33 H           2.2699   -1.0787   -1.3917 H       1  UNL1        0.0427
     34 H           0.2822    3.0165   -2.7595 H       1  UNL1        0.0238
     35 H          -0.9472    3.4754   -1.5685 H       1  UNL1        0.0238
     36 H          -1.1822    2.0844   -2.6406 H       1  UNL1        0.0238
     37 H           2.8599    2.5230   -1.8252 H       1  UNL1        0.0233
     38 H           3.1679    3.6638   -0.5126 H       1  UNL1        0.0233
     39 H           1.9255    4.0232   -1.6992 H       1  UNL1        0.0233
     40 H           2.9006   -1.1392    1.4119 H       1  UNL1        0.0470
     41 H           3.9870    0.2019    1.6416 H       1  UNL1        0.0470
     42 H          -2.4703    1.0397   -1.3312 H       1  UNL1        0.0657
     43 H          -1.0147    0.2075    3.3262 H       1  UNL1        0.0622
     44 H          -3.3336   -0.2555    2.6526 H       1  UNL1        0.0654
     45 H           5.3087   -0.2812   -0.3699 H       1  UNL1        0.0584
     46 H           4.6410   -4.2245    0.8050 H       1  UNL1        0.0274
     47 H           3.4682   -3.0616    1.3554 H       1  UNL1        0.0274
     48 H           3.3250   -3.7450   -0.2781 H       1  UNL1        0.0274
     49 H           6.6592   -2.0341   -1.3587 H       1  UNL1        0.0274
     50 H           5.7008   -3.4699   -1.7452 H       1  UNL1        0.0274
     51 H           6.7263   -3.4429   -0.2909 H       1  UNL1        0.0274
     52 H          -6.1975   -0.6485   -1.4164 H       1  UNL1        0.0375
     53 H          -6.5766   -1.1818    0.2440 H       1  UNL1        0.0375
     54 H          -6.0099   -3.5314   -0.3887 H       1  UNL1        0.0235
     55 H          -7.2961   -2.8790   -1.4216 H       1  UNL1        0.0235
     56 H          -5.6366   -3.0032   -2.0358 H       1  UNL1        0.0235
@<TRIPOS>BOND
     1     1    17    1
     2     1    23    1
     3     2    23    2
     4     3     6    1
     5     3    10    1
     6     3    14    1
     7     4     5    1
     8     4     7    1
     9     4     9    1
    10     4    12    1
    11     5     6    1
    12     5    13    1
    13     5    26    1
    14     6     8    1
    15     6    27    1
    16     7    10    1
    17     7    28    1
    18     7    29    1
    19     8    11    1
    20     8    30    1
    21     8    31    1
    22     9    11   ar
    23     9    15   ar
    24    10    32    1
    25    10    33    1
    26    11    16   ar
    27    12    34    1
    28    12    35    1
    29    12    36    1
    30    13    37    1
    31    13    38    1
    32    13    39    1
    33    14    19    1
    34    14    40    1
    35    14    41    1
    36    15    17   ar
    37    15    42    1
    38    16    18   ar
    39    16    43    1
    40    17    18   ar
    41    18    44    1
    42    19    20    2
    43    19    45    1
    44    20    21    1
    45    20    22    1
    46    21    46    1
    47    21    47    1
    48    21    48    1
    49    22    49    1
    50    22    50    1
    51    22    51    1
    52    23    24    1
    53    24    25    1
    54    24    52    1
    55    24    53    1
    56    25    54    1
    57    25    55    1
    58    25    56    1
@<TRIPOS>MOLECULE
122707128
 68 71 0 0 0
SMALL
GASTEIGER

@<TRIPOS>ATOM
      1 O           2.4578   -1.2682    0.5310 O.3     1  UNL1       -0.4608
      2 O           3.3881    0.3944   -0.8755 O.3     1  UNL1       -0.3221
      3 O           3.9430   -3.2183   -0.7827 O.3     1  UNL1       -0.3829
      4 O           6.6112   -2.1271   -0.3080 O.3     1  UNL1       -0.3863
      5 O           6.4824    0.4151    1.0960 O.3     1  UNL1       -0.3860
      6 O           5.4195    2.8621    0.5738 O.3     1  UNL1       -0.4788
      7 O           4.0568    2.8228   -1.2530 O.2     1  UNL1       -0.2480
      8 N          -4.0701    0.6410   -1.0276 N.3     1  UNL1       -0.2952
      9 C          -1.5578    1.6080    0.1390 C.3     1  UNL1       -0.0015
     10 C          -2.9362    1.7295    0.8587 C.3     1  UNL1       -0.0185
     11 C          -3.8145    0.5349    0.4251 C.3     1  UNL1        0.0181
     12 C          -1.8350    1.6583   -1.3897 C.3     1  UNL1       -0.0304
     13 C          -0.8890    0.2609    0.4561 C.ar    1  UNL1       -0.0344
     14 C          -3.1817   -0.7898    0.9031 C.3     1  UNL1       -0.0114
     15 C          -2.8630    0.6185   -1.8548 C.3     1  UNL1        0.0003
     16 C          -1.6758   -0.8647    0.7889 C.ar    1  UNL1       -0.0419
     17 C          -0.6730    2.8185    0.5100 C.3     1  UNL1       -0.0552
     18 C          -2.8464    1.8595    2.3879 C.3     1  UNL1       -0.0602
     19 C          -5.0648   -0.3098   -1.5138 C.3     1  UNL1        0.0176
     20 C           0.5050    0.0945    0.3631 C.ar    1  UNL1       -0.0159
     21 C          -1.0569   -2.0978    1.0562 C.ar    1  UNL1       -0.0548
     22 C           1.1059   -1.1384    0.6244 C.ar    1  UNL1        0.1243
     23 C           0.3261   -2.2332    0.9750 C.ar    1  UNL1       -0.0195
     24 C          -6.4373    0.0281   -1.0096 C.2     1  UNL1       -0.0713
     25 C           3.0505   -0.9864   -0.7356 C.3     1  UNL1        0.2312
     26 C          -7.2565   -0.7238   -0.2494 C.2     1  UNL1       -0.0784
     27 C           4.2963   -1.8485   -0.9407 C.3     1  UNL1        0.1455
     28 C           5.3974   -1.4630    0.0461 C.3     1  UNL1        0.1157
     29 C           5.6530    0.0451   -0.0045 C.3     1  UNL1        0.1202
     30 C           4.3495    0.8335    0.0818 C.3     1  UNL1        0.1869
     31 C          -8.6254   -0.3226    0.2226 C.3     1  UNL1       -0.0440
     32 C          -6.8275   -2.0962    0.2005 C.3     1  UNL1       -0.0440
     33 C           4.5685    2.2632   -0.2947 C.2     1  UNL1        0.3367
     34 H          -3.4301    2.6512    0.5139 H       1  UNL1        0.0322
     35 H          -4.7770    0.6429    0.9411 H       1  UNL1        0.0469
     36 H          -0.9064    1.5179   -1.9584 H       1  UNL1        0.0286
     37 H          -2.2104    2.6567   -1.6549 H       1  UNL1        0.0286
     38 H          -3.6255   -1.6507    0.3939 H       1  UNL1        0.0328
     39 H          -3.4283   -0.9173    1.9663 H       1  UNL1        0.0328
     40 H          -3.1226    0.8560   -2.8943 H       1  UNL1        0.0427
     41 H          -2.4124   -0.3811   -1.8729 H       1  UNL1        0.0427
     42 H          -1.2338    3.7564    0.4212 H       1  UNL1        0.0238
     43 H           0.1944    2.9105   -0.1535 H       1  UNL1        0.0238
     44 H          -0.2959    2.7478    1.5363 H       1  UNL1        0.0238
     45 H          -3.8468    1.8369    2.8337 H       1  UNL1        0.0233
     46 H          -2.3923    2.8148    2.6705 H       1  UNL1        0.0233
     47 H          -2.2553    1.0637    2.8494 H       1  UNL1        0.0233
     48 H          -5.1389   -0.2181   -2.6067 H       1  UNL1        0.0470
     49 H          -4.7578   -1.3424   -1.3475 H       1  UNL1        0.0470
     50 H           1.1303    0.9386    0.0927 H       1  UNL1        0.0657
     51 H          -1.6575   -2.9629    1.3276 H       1  UNL1        0.0622
     52 H           0.7873   -3.1950    1.1806 H       1  UNL1        0.0654
     53 H          -6.8036    1.0101   -1.3092 H       1  UNL1        0.0584
     54 H           2.3349   -1.2337   -1.5314 H       1  UNL1        0.1084
     55 H           4.6731   -1.7209   -1.9634 H       1  UNL1        0.0683
     56 H           5.1514   -1.7950    1.0612 H       1  UNL1        0.0648
     57 H           6.2021    0.3008   -0.9192 H       1  UNL1        0.0652
     58 H           3.9055    0.8161    1.0846 H       1  UNL1        0.0742
     59 H          -9.3833   -1.0074   -0.1711 H       1  UNL1        0.0274
     60 H          -8.6712   -0.3381    1.3163 H       1  UNL1        0.0274
     61 H          -8.8836    0.6886   -0.1086 H       1  UNL1        0.0274
     62 H          -6.5117   -2.0625    1.2484 H       1  UNL1        0.0274
     63 H          -7.6713   -2.7923    0.1264 H       1  UNL1        0.0274
     64 H          -6.0257   -2.5443   -0.3869 H       1  UNL1        0.0274
     65 H           3.2463   -3.4192   -1.4306 H       1  UNL1        0.2102
     66 H           6.8407   -1.8747   -1.2186 H       1  UNL1        0.2100
     67 H           6.0109    0.1922    1.9168 H       1  UNL1        0.2100
     68 H           5.5776    3.8022    0.3425 H       1  UNL1        0.2951
@<TRIPOS>BOND
     1     1    22    1
     2     1    25    1
     3     2    25    1
     4     2    30    1
     5     3    27    1
     6     3    65    1
     7     4    28    1
     8     4    66    1
     9     5    29    1
    10     5    67    1
    11     6    33    1
    12     6    68    1
    13     7    33    2
    14     8    11    1
    15     8    15    1
    16     8    19    1
    17     9    10    1
    18     9    12    1
    19     9    13    1
    20     9    17    1
    21    10    11    1
    22    10    18    1
    23    10    34    1
    24    11    14    1
    25    11    35    1
    26    12    15    1
    27    12    36    1
    28    12    37    1
    29    13    16   ar
    30    13    20   ar
    31    14    16    1
    32    14    38    1
    33    14    39    1
    34    15    40    1
    35    15    41    1
    36    16    21   ar
    37    17    42    1
    38    17    43    1
    39    17    44    1
    40    18    45    1
    41    18    46    1
    42    18    47    1
    43    19    24    1
    44    19    48    1
    45    19    49    1
    46    20    22   ar
    47    20    50    1
    48    21    23   ar
    49    21    51    1
    50    22    23   ar
    51    23    52    1
    52    24    26    2
    53    24    53    1
    54    25    27    1
    55    25    54    1
    56    26    31    1
    57    26    32    1
    58    27    28    1
    59    27    55    1
    60    28    29    1
    61    28    56    1
    62    29    30    1
    63    29    57    1
    64    30    33    1
    65    30    58    1
    66    31    59    1
    67    31    60    1
    68    31    61    1
    69    32    62    1
    70    32    63    1
    71    32    64    1
@<TRIPOS>MOLECULE
159618115
 24 24 0 0 0
SMALL
GASTEIGER

@<TRIPOS>ATOM
      1 N           1.5118   -0.1616    0.0304 N.pl3   1  UNL1       -0.2362
      2 N          -1.2115    0.7694   -0.8773 N.2     1  UNL1       -0.1632
      3 N           1.4207    1.0860    0.6049 N.2     1  UNL1       -0.0575
      4 N          -0.1975    1.5000   -0.8780 N.2     1  UNL1       -0.0265
      5 N           0.3877    1.7550    0.3607 N.2     1  UNL1       -0.0071
      6 C           0.5267   -1.2116    0.3767 C.3     1  UNL1        0.0414
      7 C          -0.7382   -0.7180    1.1175 C.3     1  UNL1       -0.0091
      8 C          -1.7330    0.1997    0.3753 C.3     1  UNL1        0.0725
      9 C           0.1710   -2.0848   -0.8303 C.3     1  UNL1       -0.0449
     10 C          -3.0082   -0.5640    0.0100 C.3     1  UNL1       -0.0408
     11 C           2.8705   -0.5701   -0.2900 C.3     1  UNL1        0.0202
     12 H           1.0484   -1.8564    1.0979 H       1  UNL1        0.0514
     13 H          -0.4128   -0.1899    2.0253 H       1  UNL1        0.0305
     14 H          -1.2737   -1.5958    1.5048 H       1  UNL1        0.0305
     15 H          -2.0371    1.0143    1.0461 H       1  UNL1        0.0561
     16 H          -0.1969   -1.4938   -1.6737 H       1  UNL1        0.0248
     17 H          -0.5927   -2.8240   -0.5667 H       1  UNL1        0.0248
     18 H           1.0456   -2.6395   -1.1851 H       1  UNL1        0.0248
     19 H          -2.7953   -1.3947   -0.6712 H       1  UNL1        0.0251
     20 H          -3.7237    0.0968   -0.4919 H       1  UNL1        0.0251
     21 H          -3.4943   -0.9678    0.9042 H       1  UNL1        0.0251
     22 H           3.4437    0.2993   -0.6267 H       1  UNL1        0.0444
     23 H           3.3378   -0.9954    0.6025 H       1  UNL1        0.0444
     24 H           2.8579   -1.3075   -1.0952 H       1  UNL1        0.0444
@<TRIPOS>BOND
     1     1     3    1
     2     1     6    1
     3     1    11    1
     4     2     4    2
     5     2     8    1
     6     3     5    2
     7     4     5    1
     8     6     7    1
     9     6     9    1
    10     6    12    1
    11     7     8    1
    12     7    13    1
    13     7    14    1
    14     8    10    1
    15     8    15    1
    16     9    16    1
    17     9    17    1
    18     9    18    1
    19    10    19    1
    20    10    20    1
    21    10    21    1
    22    11    22    1
    23    11    23    1
    24    11    24    1
@<TRIPOS>MOLECULE
68888389
 13 13 0 0 0
SMALL
GASTEIGER

@<TRIPOS>ATOM
      1 N           0.5402    1.2266   -0.6418 N.ar    1  UNL1       -0.2022
      2 N          -0.7638    1.4087   -0.2180 N.ar    1  UNL1       -0.1849
      3 N           1.3669    0.8913    0.3776 N.ar    1  UNL1       -0.1653
      4 N          -1.5823    0.4939    0.3563 N.ar    1  UNL1       -0.0512
      5 N          -1.4062   -0.7423    0.3305 N.ar    1  UNL1       -0.1383
      6 C           0.8395   -1.4318   -0.3111 C.ar    1  UNL1       -0.0220
      7 C           1.5013   -0.3908    0.5040 C.ar    1  UNL1        0.0508
      8 C          -0.4956   -1.4557   -0.3975 C.ar    1  UNL1        0.0531
      9 H           0.8374    2.1348   -0.9984 H       1  UNL1        0.2119
     10 H          -1.1037    2.3637   -0.1596 H       1  UNL1        0.2136
     11 H           1.4667   -2.1293   -0.8518 H       1  UNL1        0.0649
     12 H           2.1997   -0.7744    1.2658 H       1  UNL1        0.0848
     13 H          -0.9428   -2.2250   -1.0215 H       1  UNL1        0.0849
@<TRIPOS>BOND
     1     1     2   ar
     2     1     3   ar
     3     1     9    1
     4     2     4   ar
     5     2    10    1
     6     3     7   ar
     7     4     5   ar
     8     5     8   ar
     9     6     7   ar
    10     6     8   ar
    11     6    11    1
    12     7    12    1
    13     8    13    1
@<TRIPOS>MOLECULE
22879767
 75 79 0 0 0
SMALL
GASTEIGER

@<TRIPOS>ATOM
      1 O           0.3136   -1.5933   -1.8787 O.3     1  UNL1       -0.3804
      2 O          -2.2051    2.0961    0.8862 O.2     1  UNL1       -0.2971
      3 O           2.0274   -2.4102    0.9678 O.2     1  UNL1       -0.2907
      4 O           3.7240   -0.5978   -0.0599 O.3     1  UNL1       -0.4568
      5 O          -8.5201    2.3601   -1.0688 O.2     1  UNL1       -0.2927
      6 O           4.3145    1.0967   -1.5101 O.2     1  UNL1       -0.2508
      7 C          -2.1403   -1.7846   -0.3002 C.3     1  UNL1       -0.0286
      8 C          -0.8696   -1.0554    0.2002 C.3     1  UNL1        0.0135
      9 C          -3.4333   -1.2263    0.3111 C.3     1  UNL1       -0.0270
     10 C          -3.5652    0.2831   -0.0529 C.3     1  UNL1        0.0297
     11 C           0.2127   -1.9186   -0.4951 C.3     1  UNL1        0.1329
     12 C          -1.8150   -3.2603   -0.0800 C.3     1  UNL1       -0.0463
     13 C          -4.8845    0.9391    0.5009 C.3     1  UNL1       -0.0005
     14 C          -0.9638    0.4058   -0.2495 C.3     1  UNL1        0.0148
     15 C          -0.2998   -3.3663   -0.3427 C.3     1  UNL1       -0.0161
     16 C          -4.6608   -1.9966   -0.1912 C.3     1  UNL1       -0.0456
     17 C          -2.2502    1.0245    0.2846 C.2     1  UNL1        0.1381
     18 C          -0.6994   -1.1035    1.7442 C.3     1  UNL1       -0.0559
     19 C          -6.0840    0.0517    0.1286 C.2     1  UNL1       -0.0597
     20 C          -5.9444   -1.4280    0.3974 C.3     1  UNL1       -0.0305
     21 C          -5.0528    2.3427   -0.1534 C.3     1  UNL1       -0.0363
     22 C           1.6020   -1.7307    0.0348 C.2     1  UNL1        0.2022
     23 C          -4.8675    1.0811    2.0400 C.3     1  UNL1       -0.0552
     24 C          -6.4508    2.9229   -0.0056 C.3     1  UNL1        0.0107
     25 C          -7.2342    0.5165   -0.3879 C.2     1  UNL1       -0.0194
     26 C          -7.4744    1.9673   -0.5558 C.2     1  UNL1        0.1561
     27 C           2.4390   -0.6654   -0.6410 C.3     1  UNL1        0.1530
     28 C           4.5818    0.3365   -0.5897 C.2     1  UNL1        0.3075
     29 C           8.2256    1.2373    0.3336 C.3     1  UNL1       -0.0405
     30 C           5.9056    0.2797    0.1379 C.3     1  UNL1        0.0452
     31 C           6.9112    1.2806   -0.4257 C.3     1  UNL1       -0.0401
     32 C           9.2798    2.1821   -0.2344 C.3     1  UNL1       -0.0502
     33 C           8.9237   -0.1166    0.2509 C.3     1  UNL1       -0.0502
     34 C          10.5900    1.6662    0.3516 C.3     1  UNL1       -0.0528
     35 C          10.3645    0.1835    0.6528 C.3     1  UNL1       -0.0528
     36 H          -2.2207   -1.6450   -1.3908 H       1  UNL1        0.0310
     37 H          -3.3897   -1.3433    1.3995 H       1  UNL1        0.0311
     38 H          -3.6247    0.3402   -1.1521 H       1  UNL1        0.0389
     39 H          -2.3794   -3.9076   -0.7593 H       1  UNL1        0.0269
     40 H          -2.0479   -3.5745    0.9437 H       1  UNL1        0.0269
     41 H          -0.9800    0.5113   -1.3398 H       1  UNL1        0.0348
     42 H          -0.1169    0.9882    0.1279 H       1  UNL1        0.0348
     43 H          -0.1226   -3.9555   -1.2498 H       1  UNL1        0.0297
     44 H           0.1633   -3.9068    0.4898 H       1  UNL1        0.0297
     45 H          -4.5858   -3.0539    0.0882 H       1  UNL1        0.0271
     46 H          -4.7081   -1.9597   -1.2874 H       1  UNL1        0.0271
     47 H          -1.5245   -0.6162    2.2722 H       1  UNL1        0.0236
     48 H           0.2121   -0.5764    2.0493 H       1  UNL1        0.0236
     49 H          -0.6304   -2.1253    2.1296 H       1  UNL1        0.0236
     50 H          -5.9576   -1.5959    1.4814 H       1  UNL1        0.0310
     51 H          -6.7947   -1.9894   -0.0092 H       1  UNL1        0.0310
     52 H          -4.8257    2.2748   -1.2267 H       1  UNL1        0.0278
     53 H          -4.3418    3.0620    0.2662 H       1  UNL1        0.0278
     54 H          -4.6223    0.1396    2.5410 H       1  UNL1        0.0238
     55 H          -5.8444    1.3981    2.4242 H       1  UNL1        0.0238
     56 H          -4.1410    1.8266    2.3760 H       1  UNL1        0.0238
     57 H           0.8173   -2.2959   -2.3244 H       1  UNL1        0.2108
     58 H          -6.6945    3.1383    1.0395 H       1  UNL1        0.0345
     59 H          -6.5118    3.8600   -0.5702 H       1  UNL1        0.0345
     60 H          -8.0540   -0.1448   -0.6485 H       1  UNL1        0.0652
     61 H           2.5632   -0.9174   -1.6986 H       1  UNL1        0.0779
     62 H           1.9414    0.3015   -0.5316 H       1  UNL1        0.0779
     63 H           8.0503    1.4898    1.3884 H       1  UNL1        0.0301
     64 H           6.2860   -0.7422    0.0378 H       1  UNL1        0.0378
     65 H           5.7208    0.4925    1.1967 H       1  UNL1        0.0378
     66 H           7.0770    1.0731   -1.4908 H       1  UNL1        0.0273
     67 H           6.4936    2.2941   -0.3719 H       1  UNL1        0.0273
     68 H           9.0933    3.2263    0.0351 H       1  UNL1        0.0268
     69 H           9.3142    2.1181   -1.3290 H       1  UNL1        0.0268
     70 H           8.9002   -0.5091   -0.7733 H       1  UNL1        0.0268
     71 H           8.4769   -0.8665    0.9108 H       1  UNL1        0.0268
     72 H          11.4245    1.8199   -0.3398 H       1  UNL1        0.0265
     73 H          10.8290    2.2001    1.2787 H       1  UNL1        0.0265
     74 H          10.5104   -0.0039    1.7229 H       1  UNL1        0.0265
     75 H          11.0694   -0.4539    0.1095 H       1  UNL1        0.0265
@<TRIPOS>BOND
     1     1    11    1
     2     1    57    1
     3     2    17    2
     4     3    22    2
     5     4    27    1
     6     4    28    1
     7     5    26    2
     8     6    28    2
     9     7     8    1
    10     7     9    1
    11     7    12    1
    12     7    36    1
    13     8    11    1
    14     8    14    1
    15     8    18    1
    16     9    10    1
    17     9    16    1
    18     9    37    1
    19    10    13    1
    20    10    17    1
    21    10    38    1
    22    11    15    1
    23    11    22    1
    24    12    15    1
    25    12    39    1
    26    12    40    1
    27    13    19    1
    28    13    21    1
    29    13    23    1
    30    14    17    1
    31    14    41    1
    32    14    42    1
    33    15    43    1
    34    15    44    1
    35    16    20    1
    36    16    45    1
    37    16    46    1
    38    18    47    1
    39    18    48    1
    40    18    49    1
    41    19    20    1
    42    19    25    2
    43    20    50    1
    44    20    51    1
    45    21    24    1
    46    21    52    1
    47    21    53    1
    48    22    27    1
    49    23    54    1
    50    23    55    1
    51    23    56    1
    52    24    26    1
    53    24    58    1
    54    24    59    1
    55    25    26    1
    56    25    60    1
    57    27    61    1
    58    27    62    1
    59    28    30    1
    60    29    31    1
    61    29    32    1
    62    29    33    1
    63    29    63    1
    64    30    31    1
    65    30    64    1
    66    30    65    1
    67    31    66    1
    68    31    67    1
    69    32    34    1
    70    32    68    1
    71    32    69    1
    72    33    35    1
    73    33    70    1
    74    33    71    1
    75    34    35    1
    76    34    72    1
    77    34    73    1
    78    35    74    1
    79    35    75    1
@<TRIPOS>MOLECULE
154572910
 14 14 0 0 0
SMALL
GASTEIGER

@<TRIPOS>ATOM
      1 O          -2.0652   -0.7871    1.2529 O.3     1  UNL1       -0.4760
      2 O          -3.0040    0.4236   -0.4620 O.2     1  UNL1       -0.2433
      3 N          -0.0909    1.2819    0.2674 N.2     1  UNL1       -0.1213
      4 N           1.6636   -1.2870    0.4074 N.2     1  UNL1       -0.1363
      5 N           1.1604    1.5973   -0.2792 N.2     1  UNL1       -0.0209
      6 N           1.9485   -0.1700    0.9086 N.2     1  UNL1       -0.0217
      7 N           2.1471    0.8748    0.0013 N.2     1  UNL1       -0.0029
      8 C          -0.6547    0.2379   -0.2498 C.2     1  UNL1        0.1728
      9 C          -0.0769   -0.7490   -1.1904 C.2     1  UNL1       -0.0076
     10 C          -2.0622   -0.0237    0.1549 C.2     1  UNL1        0.3572
     11 C           1.0344   -1.3985   -0.8110 C.2     1  UNL1        0.0540
     12 H          -0.5833   -0.9532   -2.1247 H       1  UNL1        0.0657
     13 H           1.4487   -2.1560   -1.4690 H       1  UNL1        0.0849
     14 H          -2.9734   -0.9884    1.5642 H       1  UNL1        0.2955
@<TRIPOS>BOND
     1     1    10    1
     2     1    14    1
     3     2    10    2
     4     3     5    1
     5     3     8    2
     6     4     6    2
     7     4    11    1
     8     5     7    2
     9     6     7    1
    10     8     9    1
    11     8    10    1
    12     9    11    2
    13     9    12    1
    14    11    13    1
@<TRIPOS>MOLECULE
12259682
 48 50 0 0 0
SMALL
GASTEIGER

@<TRIPOS>ATOM
      1 O           5.5638   -0.4081    1.2212 O.3     1  UNL1       -0.5068
      2 N          -1.5620    0.6878    0.1834 N.3     1  UNL1       -0.2952
      3 C           0.8344   -1.2711   -0.1039 C.3     1  UNL1       -0.0015
      4 C           0.0536   -0.6398   -1.2642 C.3     1  UNL1       -0.0185
      5 C          -0.3502    0.7154   -0.6150 C.3     1  UNL1        0.0181
      6 C          -0.1174   -1.2546    1.1823 C.3     1  UNL1       -0.0304
      7 C           0.7413    1.7119   -1.0148 C.3     1  UNL1       -0.0114
      8 C           2.0983   -0.3068    0.0226 C.ar    1  UNL1       -0.0344
      9 C          -1.5506   -0.5660    0.9974 C.3     1  UNL1        0.0003
     10 C           2.0650    1.0632   -0.4828 C.ar    1  UNL1       -0.0419
     11 C           1.2558   -2.7147   -0.4267 C.3     1  UNL1       -0.0552
     12 C          -1.0299   -1.4731   -1.9486 C.3     1  UNL1       -0.0602
     13 C          -2.7959    0.9377   -0.5289 C.3     1  UNL1        0.0176
     14 C           3.2857   -0.7640    0.6080 C.ar    1  UNL1       -0.0162
     15 C           3.2127    1.8605   -0.4302 C.ar    1  UNL1       -0.0548
     16 C           4.4142    0.0600    0.6577 C.ar    1  UNL1        0.1172
     17 C           4.3818    1.3544    0.1342 C.ar    1  UNL1       -0.0199
     18 C          -3.9574    1.0568    0.4135 C.2     1  UNL1       -0.0713
     19 C          -5.0722    0.3025    0.4650 C.2     1  UNL1       -0.0784
     20 C          -6.2023    0.4772    1.4397 C.3     1  UNL1       -0.0440
     21 C          -5.2687   -0.8291   -0.5100 C.3     1  UNL1       -0.0440
     22 H           0.7495   -0.4587   -2.1011 H       1  UNL1        0.0322
     23 H          -0.8931    1.0721   -1.5089 H       1  UNL1        0.0469
     24 H           0.4003   -0.7264    1.9937 H       1  UNL1        0.0286
     25 H          -0.2902   -2.2770    1.5400 H       1  UNL1        0.0286
     26 H           0.5833    2.6681   -0.5039 H       1  UNL1        0.0328
     27 H           0.8398    1.8820   -2.0948 H       1  UNL1        0.0328
     28 H          -2.2316   -1.3174    0.5858 H       1  UNL1        0.0427
     29 H          -1.9339   -0.3319    1.9983 H       1  UNL1        0.0427
     30 H           1.8018   -3.1739    0.4040 H       1  UNL1        0.0238
     31 H           0.3862   -3.3547   -0.6113 H       1  UNL1        0.0238
     32 H           1.8980   -2.7547   -1.3138 H       1  UNL1        0.0238
     33 H          -0.5670   -2.2858   -2.5209 H       1  UNL1        0.0233
     34 H          -1.7376   -1.9465   -1.2702 H       1  UNL1        0.0233
     35 H          -1.5848   -0.8708   -2.6750 H       1  UNL1        0.0233
     36 H          -2.7372    1.9130   -1.0328 H       1  UNL1        0.0470
     37 H          -2.9843    0.2100   -1.3183 H       1  UNL1        0.0470
     38 H           3.3538   -1.7627    1.0284 H       1  UNL1        0.0657
     39 H           3.1952    2.8798   -0.8057 H       1  UNL1        0.0622
     40 H           5.2644    1.9878    0.1753 H       1  UNL1        0.0654
     41 H          -3.8739    1.8655    1.1399 H       1  UNL1        0.0584
     42 H           6.2444    0.2852    1.1731 H       1  UNL1        0.2921
     43 H          -7.1412    0.6580    0.9067 H       1  UNL1        0.0274
     44 H          -6.0279    1.3267    2.1081 H       1  UNL1        0.0274
     45 H          -6.3160   -0.4179    2.0596 H       1  UNL1        0.0274
     46 H          -5.8813   -0.4966   -1.3540 H       1  UNL1        0.0274
     47 H          -5.7927   -1.6590   -0.0215 H       1  UNL1        0.0274
     48 H          -4.3398   -1.2567   -0.8923 H       1  UNL1        0.0274
@<TRIPOS>BOND
     1     1    16    1
     2     1    42    1
     3     2     5    1
     4     2     9    1
     5     2    13    1
     6     3     4    1
     7     3     6    1
     8     3     8    1
     9     3    11    1
    10     4     5    1
    11     4    12    1
    12     4    22    1
    13     5     7    1
    14     5    23    1
    15     6     9    1
    16     6    24    1
    17     6    25    1
    18     7    10    1
    19     7    26    1
    20     7    27    1
    21     8    10   ar
    22     8    14   ar
    23     9    28    1
    24     9    29    1
    25    10    15   ar
    26    11    30    1
    27    11    31    1
    28    11    32    1
    29    12    33    1
    30    12    34    1
    31    12    35    1
    32    13    18    1
    33    13    36    1
    34    13    37    1
    35    14    16   ar
    36    14    38    1
    37    15    17   ar
    38    15    39    1
    39    16    17   ar
    40    17    40    1
    41    18    19    2
    42    18    41    1
    43    19    20    1
    44    19    21    1
    45    20    43    1
    46    20    44    1
    47    20    45    1
    48    21    46    1
    49    21    47    1
    50    21    48    1
@<TRIPOS>MOLECULE
53400637
 11 11 0 0 0
SMALL
GASTEIGER

@<TRIPOS>ATOM
      1 N          -1.4902    0.3990    0.4983 N.2     1  UNL1       -0.1363
      2 N           1.4592   -0.5818    0.4300 N.2     1  UNL1       -0.1363
      3 N          -1.3833   -0.5273   -0.5477 N.2     1  UNL1       -0.0217
      4 N           0.4434   -1.3128    0.5513 N.2     1  UNL1       -0.0217
      5 N          -0.4271   -1.3406   -0.5431 N.2     1  UNL1       -0.0029
      6 C           0.5508    1.4883   -0.4392 C.2     1  UNL1       -0.0219
      7 C          -0.6238    1.3625    0.4541 C.2     1  UNL1        0.0531
      8 C           1.4710    0.5126   -0.4036 C.2     1  UNL1        0.0531
      9 H           0.6525    2.3723   -1.0540 H       1  UNL1        0.0649
     10 H          -0.7325    2.1868    1.1783 H       1  UNL1        0.0849
     11 H           2.3598    0.6066   -1.0195 H       1  UNL1        0.0849
@<TRIPOS>BOND
     1     1     3    1
     2     1     7    2
     3     2     4    2
     4     2     8    1
     5     3     5    2
     6     4     5    1
     7     6     7    1
     8     6     8    2
     9     6     9    1
    10     7    10    1
    11     8    11    1
@<TRIPOS>MOLECULE
58506875
 48 50 0 0 0
SMALL
GASTEIGER

@<TRIPOS>ATOM
      1 O           5.2517   -0.8695   -1.1332 O.3     1  UNL1       -0.5068
      2 N          -1.5977   -0.0603   -0.0760 N.3     1  UNL1       -0.2952
      3 C           0.9057    1.4170   -0.4742 C.3     1  UNL1       -0.0015
      4 C          -0.0625    1.6830    0.7195 C.3     1  UNL1       -0.0185
      5 C          -0.7672    0.3551    1.0749 C.3     1  UNL1        0.0181
      6 C           0.0373    0.9217   -1.6646 C.3     1  UNL1       -0.0304
      7 C           0.2677   -0.6794    1.5675 C.3     1  UNL1       -0.0114
      8 C           1.9132    0.3089   -0.1283 C.ar    1  UNL1       -0.0344
      9 C          -0.8462   -0.2821   -1.3120 C.3     1  UNL1        0.0003
     10 C           1.5815   -0.6856    0.8192 C.ar    1  UNL1       -0.0419
     11 C           1.5879    2.7388   -0.8905 C.3     1  UNL1       -0.0552
     12 C           0.6008    2.3346    1.9437 C.3     1  UNL1       -0.0602
     13 C          -2.4788   -1.1858    0.2192 C.3     1  UNL1        0.0176
     14 C           3.1549    0.2165   -0.7834 C.ar    1  UNL1       -0.0162
     15 C           2.5006   -1.7074    1.1132 C.ar    1  UNL1       -0.0548
     16 C           4.0554   -0.8083   -0.4864 C.ar    1  UNL1        0.1172
     17 C           3.7307   -1.7676    0.4644 C.ar    1  UNL1       -0.0199
     18 C          -3.7401   -1.1206   -0.5911 C.2     1  UNL1       -0.0713
     19 C          -4.9043   -0.5199   -0.2776 C.2     1  UNL1       -0.0784
     20 C          -5.0556    0.2036    1.0352 C.3     1  UNL1       -0.0440
     21 C          -6.1348   -0.4927   -1.1394 C.3     1  UNL1       -0.0440
     22 H          -0.8353    2.3947    0.3901 H       1  UNL1        0.0322
     23 H          -1.4568    0.5581    1.9058 H       1  UNL1        0.0469
     24 H           0.6683    0.6591   -2.5238 H       1  UNL1        0.0286
     25 H          -0.6144    1.7407   -2.0003 H       1  UNL1        0.0286
     26 H          -0.1643   -1.6870    1.5525 H       1  UNL1        0.0328
     27 H           0.4946   -0.4623    2.6202 H       1  UNL1        0.0328
     28 H          -1.5347   -0.4354   -2.1522 H       1  UNL1        0.0427
     29 H          -0.2352   -1.1908   -1.2503 H       1  UNL1        0.0427
     30 H           2.3479    3.0504   -0.1654 H       1  UNL1        0.0238
     31 H           2.0789    2.6563   -1.8666 H       1  UNL1        0.0238
     32 H           0.8540    3.5486   -0.9780 H       1  UNL1        0.0238
     33 H           1.4800    1.7869    2.2940 H       1  UNL1        0.0233
     34 H          -0.1094    2.3974    2.7754 H       1  UNL1        0.0233
     35 H           0.9174    3.3575    1.7158 H       1  UNL1        0.0233
     36 H          -1.9830   -2.1480    0.0340 H       1  UNL1        0.0470
     37 H          -2.7414   -1.2170    1.2835 H       1  UNL1        0.0470
     38 H           3.4291    0.9424   -1.5440 H       1  UNL1        0.0657
     39 H           2.2555   -2.4661    1.8528 H       1  UNL1        0.0622
     40 H           4.4271   -2.5668    0.7018 H       1  UNL1        0.0654
     41 H          -3.6853   -1.6227   -1.5566 H       1  UNL1        0.0584
     42 H           5.3124   -0.1270   -1.7584 H       1  UNL1        0.2921
     43 H          -5.4921    1.1944    0.8649 H       1  UNL1        0.0274
     44 H          -5.7288   -0.3548    1.6940 H       1  UNL1        0.0274
     45 H          -4.1197    0.3727    1.5715 H       1  UNL1        0.0274
     46 H          -6.9790   -0.9507   -0.6141 H       1  UNL1        0.0274
     47 H          -6.3988    0.5376   -1.3981 H       1  UNL1        0.0274
     48 H          -5.9828   -1.0438   -2.0733 H       1  UNL1        0.0274
@<TRIPOS>BOND
     1     1    16    1
     2     1    42    1
     3     2     5    1
     4     2     9    1
     5     2    13    1
     6     3     4    1
     7     3     6    1
     8     3     8    1
     9     3    11    1
    10     4     5    1
    11     4    12    1
    12     4    22    1
    13     5     7    1
    14     5    23    1
    15     6     9    1
    16     6    24    1
    17     6    25    1
    18     7    10    1
    19     7    26    1
    20     7    27    1
    21     8    10   ar
    22     8    14   ar
    23     9    28    1
    24     9    29    1
    25    10    15   ar
    26    11    30    1
    27    11    31    1
    28    11    32    1
    29    12    33    1
    30    12    34    1
    31    12    35    1
    32    13    18    1
    33    13    36    1
    34    13    37    1
    35    14    16   ar
    36    14    38    1
    37    15    17   ar
    38    15    39    1
    39    16    17   ar
    40    17    40    1
    41    18    19    2
    42    18    41    1
    43    19    20    1
    44    19    21    1
    45    20    43    1
    46    20    44    1
    47    20    45    1
    48    21    46    1
    49    21    47    1
    50    21    48    1
@<TRIPOS>MOLECULE
198520
 48 50 0 0 0
SMALL
GASTEIGER

@<TRIPOS>ATOM
      1 O          -5.0699   -1.2918   -1.2051 O.3     1  UNL1       -0.5068
      2 N           1.6198    0.1170    0.1931 N.3     1  UNL1       -0.2952
      3 C          -0.8982    1.3331   -0.6951 C.3     1  UNL1       -0.0015
      4 C          -0.0513    1.8913    0.4899 C.3     1  UNL1       -0.0185
      5 C           0.6742    0.7064    1.1653 C.3     1  UNL1        0.0181
      6 C           0.0921    0.6601   -1.6863 C.3     1  UNL1       -0.0304
      7 C          -0.3562   -0.2665    1.7782 C.3     1  UNL1       -0.0114
      8 C          -1.8850    0.2601   -0.2080 C.ar    1  UNL1       -0.0344
      9 C           0.9906   -0.3936   -1.0256 C.3     1  UNL1        0.0003
     10 C          -1.5969   -0.5016    0.9468 C.ar    1  UNL1       -0.0419
     11 C          -1.5955    2.5012   -1.4269 C.3     1  UNL1       -0.0552
     12 C          -0.8470    2.7364    1.4979 C.3     1  UNL1       -0.0602
     13 C           2.5174   -0.8719    0.7816 C.3     1  UNL1        0.0176
     14 C          -3.0591   -0.0356   -0.9245 C.ar    1  UNL1       -0.0162
     15 C          -2.4946   -1.4959    1.3723 C.ar    1  UNL1       -0.0548
     16 C          -3.9388   -1.0309   -0.4939 C.ar    1  UNL1        0.1172
     17 C          -3.6589   -1.7582    0.6561 C.ar    1  UNL1       -0.0199
     18 C           3.6152   -1.2493   -0.1693 C.2     1  UNL1       -0.0713
     19 C           4.8293   -0.6834   -0.3105 C.2     1  UNL1       -0.0784
     20 C           5.8865   -1.1133   -1.2877 C.3     1  UNL1       -0.0440
     21 C           5.2265    0.4865    0.5517 C.3     1  UNL1       -0.0440
     22 H           0.7172    2.5663    0.0823 H       1  UNL1        0.0322
     23 H           1.2801    1.1104    1.9879 H       1  UNL1        0.0469
     24 H           0.7356    1.4319   -2.1319 H       1  UNL1        0.0286
     25 H          -0.4494    0.1929   -2.5194 H       1  UNL1        0.0286
     26 H          -0.6877    0.1517    2.7386 H       1  UNL1        0.0328
     27 H           0.1096   -1.2284    2.0182 H       1  UNL1        0.0328
     28 H           0.4181   -1.3076   -0.8257 H       1  UNL1        0.0427
     29 H           1.7412   -0.6612   -1.7784 H       1  UNL1        0.0427
     30 H          -0.8909    3.3179   -1.6233 H       1  UNL1        0.0238
     31 H          -1.9958    2.1938   -2.3995 H       1  UNL1        0.0238
     32 H          -2.4282    2.9082   -0.8426 H       1  UNL1        0.0238
     33 H          -0.2170    3.0064    2.3523 H       1  UNL1        0.0233
     34 H          -1.1833    3.6723    1.0404 H       1  UNL1        0.0233
     35 H          -1.7310    2.2204    1.8828 H       1  UNL1        0.0233
     36 H           2.9446   -0.5011    1.7201 H       1  UNL1        0.0470
     37 H           1.9824   -1.7914    1.0501 H       1  UNL1        0.0470
     38 H          -3.3024    0.5008   -1.8376 H       1  UNL1        0.0657
     39 H          -2.2841   -2.0740    2.2691 H       1  UNL1        0.0622
     40 H          -4.3351   -2.5343    1.0037 H       1  UNL1        0.0654
     41 H           3.3869   -2.0951   -0.8180 H       1  UNL1        0.0584
     42 H          -5.5600   -2.0084   -0.7666 H       1  UNL1        0.2921
     43 H           6.1222   -0.2989   -1.9800 H       1  UNL1        0.0274
     44 H           5.5586   -1.9729   -1.8815 H       1  UNL1        0.0274
     45 H           6.8007   -1.4010   -0.7589 H       1  UNL1        0.0274
     46 H           5.6352    1.2876   -0.0744 H       1  UNL1        0.0274
     47 H           6.0022    0.1810    1.2616 H       1  UNL1        0.0274
     48 H           4.4055    0.9315    1.1183 H       1  UNL1        0.0274
@<TRIPOS>BOND
     1     1    16    1
     2     1    42    1
     3     2     5    1
     4     2     9    1
     5     2    13    1
     6     3     4    1
     7     3     6    1
     8     3     8    1
     9     3    11    1
    10     4     5    1
    11     4    12    1
    12     4    22    1
    13     5     7    1
    14     5    23    1
    15     6     9    1
    16     6    24    1
    17     6    25    1
    18     7    10    1
    19     7    26    1
    20     7    27    1
    21     8    10   ar
    22     8    14   ar
    23     9    28    1
    24     9    29    1
    25    10    15   ar
    26    11    30    1
    27    11    31    1
    28    11    32    1
    29    12    33    1
    30    12    34    1
    31    12    35    1
    32    13    18    1
    33    13    36    1
    34    13    37    1
    35    14    16   ar
    36    14    38    1
    37    15    17   ar
    38    15    39    1
    39    16    17   ar
    40    17    40    1
    41    18    19    2
    42    18    41    1
    43    19    20    1
    44    19    21    1
    45    20    43    1
    46    20    44    1
    47    20    45    1
    48    21    46    1
    49    21    47    1
    50    21    48    1
