@<TRIPOS>MOLECULE
121596705
 52 53 0 0 0
SMALL
GASTEIGER

@<TRIPOS>ATOM
      1 S           3.8221   -1.3067    0.9270 S.2     1  UNL1       -0.1048
      2 O          -0.4080    2.9103    0.1409 O.2     1  UNL1       -0.2529
      3 O           1.9515   -4.0614   -0.8907 O.3     1  UNL1       -0.5068
      4 N          -3.9554    0.6036    1.0998 N.3     1  UNL1       -0.3036
      5 N          -1.1476    1.1937   -1.2382 N.am    1  UNL1       -0.2979
      6 N           1.0484    1.8885   -1.3486 N.am    1  UNL1       -0.2965
      7 C          -2.7295    0.2061    0.3944 C.3     1  UNL1        0.0293
      8 C          -2.8959   -1.2689   -0.0286 C.3     1  UNL1       -0.0106
      9 C          -2.5108    1.1646   -0.7855 C.3     1  UNL1        0.0289
     10 C          -1.6033   -2.0139   -0.2591 C.ar    1  UNL1       -0.0456
     11 C           2.2145    2.6708   -1.0127 C.3     1  UNL1        0.0257
     12 C          -3.6804    1.7206    1.9991 C.3     1  UNL1       -0.0127
     13 C          -4.9973    0.9573    0.1402 C.3     1  UNL1       -0.0127
     14 C           2.5903    2.5068    0.4685 C.3     1  UNL1       -0.0089
     15 C          -0.1879    2.0749   -0.7351 C.2     1  UNL1        0.2999
     16 C          -1.0195   -2.0235   -1.5259 C.ar    1  UNL1       -0.0551
     17 C          -0.9924   -2.6924    0.7955 C.ar    1  UNL1       -0.0551
     18 C           1.9614    4.1379   -1.3455 C.3     1  UNL1       -0.0463
     19 C           2.8497    1.0702    0.8556 C.ar    1  UNL1       -0.0386
     20 C           0.1748   -2.7119   -1.7383 C.ar    1  UNL1       -0.0199
     21 C           0.2020   -3.3808    0.5832 C.ar    1  UNL1       -0.0199
     22 C           0.7856   -3.3906   -0.6837 C.ar    1  UNL1        0.1169
     23 C           2.1567    0.3909    1.8988 C.ar    1  UNL1       -0.0515
     24 C           3.7837    0.2632    0.2440 C.ar    1  UNL1       -0.0211
     25 C           2.5872   -0.9094    2.0447 C.ar    1  UNL1       -0.0241
     26 H          -1.8781    0.2603    1.0872 H       1  UNL1        0.0481
     27 H          -3.5191   -1.3561   -0.9285 H       1  UNL1        0.0329
     28 H          -3.4473   -1.8185    0.7486 H       1  UNL1        0.0329
     29 H          -3.1103    0.8828   -1.6591 H       1  UNL1        0.0478
     30 H          -2.7491    2.2040   -0.5391 H       1  UNL1        0.0478
     31 H           3.0252    2.3039   -1.6531 H       1  UNL1        0.0499
     32 H          -0.8789    0.5891   -2.0068 H       1  UNL1        0.1503
     33 H          -2.9259    1.4419    2.7438 H       1  UNL1        0.0391
     34 H          -3.3405    2.6285    1.4907 H       1  UNL1        0.0391
     35 H          -4.5843    1.9767    2.5640 H       1  UNL1        0.0391
     36 H          -5.9487    1.0419    0.6811 H       1  UNL1        0.0391
     37 H          -4.8597    1.9189   -0.3663 H       1  UNL1        0.0391
     38 H          -5.1672    0.1758   -0.6080 H       1  UNL1        0.0391
     39 H           1.8261    2.9315    1.1293 H       1  UNL1        0.0331
     40 H           3.5064    3.0790    0.6691 H       1  UNL1        0.0331
     41 H           1.1359    1.1689   -2.0597 H       1  UNL1        0.1505
     42 H          -1.4950   -1.5181   -2.3618 H       1  UNL1        0.0621
     43 H          -1.4350   -2.6892    1.7880 H       1  UNL1        0.0621
     44 H           1.2037    4.5966   -0.7032 H       1  UNL1        0.0248
     45 H           1.6301    4.2515   -2.3837 H       1  UNL1        0.0248
     46 H           2.8830    4.7179   -1.2249 H       1  UNL1        0.0248
     47 H           0.6227   -2.7189   -2.7282 H       1  UNL1        0.0654
     48 H           0.6687   -3.9043    1.4133 H       1  UNL1        0.0654
     49 H           1.3795    0.8275    2.5132 H       1  UNL1        0.0626
     50 H           4.4511    0.5138   -0.5688 H       1  UNL1        0.0696
     51 H           2.2352   -1.6452    2.7539 H       1  UNL1        0.0693
     52 H           2.2344   -4.4672   -0.0532 H       1  UNL1        0.2921
@<TRIPOS>BOND
     1     1    24   ar
     2     1    25   ar
     3     2    15    2
     4     3    22    1
     5     3    52    1
     6     4     7    1
     7     4    12    1
     8     4    13    1
     9     5     9    1
    10     5    15   am
    11     5    32    1
    12     6    11    1
    13     6    15   am
    14     6    41    1
    15     7     8    1
    16     7     9    1
    17     7    26    1
    18     8    10    1
    19     8    27    1
    20     8    28    1
    21     9    29    1
    22     9    30    1
    23    10    16   ar
    24    10    17   ar
    25    11    14    1
    26    11    18    1
    27    11    31    1
    28    12    33    1
    29    12    34    1
    30    12    35    1
    31    13    36    1
    32    13    37    1
    33    13    38    1
    34    14    19    1
    35    14    39    1
    36    14    40    1
    37    16    20   ar
    38    16    42    1
    39    17    21   ar
    40    17    43    1
    41    18    44    1
    42    18    45    1
    43    18    46    1
    44    19    23   ar
    45    19    24   ar
    46    20    22   ar
    47    20    47    1
    48    21    22   ar
    49    21    48    1
    50    23    25   ar
    51    23    49    1
    52    24    50    1
    53    25    51    1
