@<TRIPOS>MOLECULE
60815
 55 56 0 0 0
SMALL
GASTEIGER

@<TRIPOS>ATOM
      1 O          -0.6009    2.8847    0.5775 O.3     1  UNL1       -0.4664
      2 O          -1.5592    1.4954    2.1550 O.2     1  UNL1       -0.2484
      3 O          -3.0028    2.1841   -1.0478 O.2     1  UNL1       -0.2752
      4 O           6.5171   -1.5104   -0.1719 O.3     1  UNL1       -0.4679
      5 O           6.3308    0.7885   -0.1149 O.2     1  UNL1       -0.2508
      6 N           2.1037    0.3448   -0.4672 N.3     1  UNL1       -0.3016
      7 N          -2.1110    0.1425   -0.2406 N.am    1  UNL1       -0.2547
      8 C          -0.7754    0.6072    0.0534 C.3     1  UNL1        0.1408
      9 C           0.0725   -0.5180    0.6546 C.3     1  UNL1       -0.0078
     10 C          -0.1087    1.1780   -1.2019 C.3     1  UNL1       -0.0078
     11 C           1.5429   -0.1177    0.8087 C.3     1  UNL1        0.0014
     12 C           1.3688    1.5108   -0.9741 C.3     1  UNL1        0.0014
     13 C          -1.0354    1.6882    1.0661 C.2     1  UNL1        0.3312
     14 C           3.5237    0.6619   -0.3164 C.3     1  UNL1        0.0090
     15 C          -2.4352   -1.2575    0.0224 C.ar    1  UNL1        0.0374
     16 C          -3.1284    0.9874   -0.7760 C.2     1  UNL1        0.2205
     17 C           4.3557   -0.6172   -0.3172 C.3     1  UNL1        0.0576
     18 C          -4.4857    0.3177   -0.9716 C.3     1  UNL1        0.0217
     19 C          -2.2422   -2.2167   -0.9719 C.ar    1  UNL1       -0.0402
     20 C          -2.9370   -1.6355    1.2680 C.ar    1  UNL1       -0.0402
     21 C           5.8344   -0.3270   -0.1899 C.2     1  UNL1        0.3080
     22 C          -5.5280    1.2576   -1.5579 C.3     1  UNL1       -0.0570
     23 C          -0.7887    4.0077    1.4445 C.3     1  UNL1        0.0817
     24 C          -2.5512   -3.5535   -0.7209 C.ar    1  UNL1       -0.0600
     25 C          -3.2459   -2.9724    1.5189 C.ar    1  UNL1       -0.0600
     26 C          -3.0530   -3.9313    0.5245 C.ar    1  UNL1       -0.0616
     27 C           7.9392   -1.3996   -0.0536 C.3     1  UNL1        0.0817
     28 H          -0.2892   -0.8233    1.6445 H       1  UNL1        0.0304
     29 H           0.0777   -1.4079    0.0138 H       1  UNL1        0.0304
     30 H          -0.1675    0.4246   -2.0018 H       1  UNL1        0.0304
     31 H          -0.6126    2.0594   -1.6149 H       1  UNL1        0.0304
     32 H           1.6340    0.6584    1.5804 H       1  UNL1        0.0427
     33 H           2.0779   -0.9984    1.1788 H       1  UNL1        0.0427
     34 H           1.7858    1.8049   -1.9460 H       1  UNL1        0.0427
     35 H           1.5048    2.3701   -0.3090 H       1  UNL1        0.0427
     36 H           3.7156    1.2619    0.5829 H       1  UNL1        0.0432
     37 H           3.8643    1.2696   -1.1659 H       1  UNL1        0.0432
     38 H           4.0873   -1.2653    0.5231 H       1  UNL1        0.0390
     39 H           4.1981   -1.1654   -1.2536 H       1  UNL1        0.0390
     40 H          -4.3788   -0.5310   -1.6540 H       1  UNL1        0.0356
     41 H          -4.8561   -0.0386   -0.0053 H       1  UNL1        0.0356
     42 H          -1.8519   -1.9323   -1.9456 H       1  UNL1        0.0636
     43 H          -3.0944   -0.8975    2.0498 H       1  UNL1        0.0636
     44 H          -5.2113    1.6357   -2.5355 H       1  UNL1        0.0234
     45 H          -5.6954    2.1183   -0.9018 H       1  UNL1        0.0234
     46 H          -6.4817    0.7361   -1.6860 H       1  UNL1        0.0234
     47 H          -1.8538    4.1548    1.6474 H       1  UNL1        0.0661
     48 H          -0.2330    3.8634    2.3759 H       1  UNL1        0.0661
     49 H          -0.4014    4.8958    0.9384 H       1  UNL1        0.0661
     50 H          -2.4010   -4.3002   -1.4952 H       1  UNL1        0.0618
     51 H          -3.6373   -3.2665    2.4884 H       1  UNL1        0.0618
     52 H          -3.2936   -4.9722    0.7199 H       1  UNL1        0.0618
     53 H           8.3484   -0.8506   -0.9070 H       1  UNL1        0.0661
     54 H           8.2037   -0.9067    0.8867 H       1  UNL1        0.0661
     55 H           8.3597   -2.4088   -0.0513 H       1  UNL1        0.0661
@<TRIPOS>BOND
     1     1    13    1
     2     1    23    1
     3     2    13    2
     4     3    16    2
     5     4    21    1
     6     4    27    1
     7     5    21    2
     8     6    11    1
     9     6    12    1
    10     6    14    1
    11     7     8    1
    12     7    15    1
    13     7    16   am
    14     8     9    1
    15     8    10    1
    16     8    13    1
    17     9    11    1
    18     9    28    1
    19     9    29    1
    20    10    12    1
    21    10    30    1
    22    10    31    1
    23    11    32    1
    24    11    33    1
    25    12    34    1
    26    12    35    1
    27    14    17    1
    28    14    36    1
    29    14    37    1
    30    15    19   ar
    31    15    20   ar
    32    16    18    1
    33    17    21    1
    34    17    38    1
    35    17    39    1
    36    18    22    1
    37    18    40    1
    38    18    41    1
    39    19    24   ar
    40    19    42    1
    41    20    25   ar
    42    20    43    1
    43    22    44    1
    44    22    45    1
    45    22    46    1
    46    23    47    1
    47    23    48    1
    48    23    49    1
    49    24    26   ar
    50    24    50    1
    51    25    26   ar
    52    25    51    1
    53    26    52    1
    54    27    53    1
    55    27    54    1
    56    27    55    1
@<TRIPOS>MOLECULE
14987174
 52 53 0 0 0
SMALL
GASTEIGER

@<TRIPOS>ATOM
      1 O          -2.0741    1.8124   -1.4973 O.3     1  UNL1       -0.4664
      2 O          -0.4808    2.9819   -0.3015 O.2     1  UNL1       -0.2484
      3 O          -2.2937    2.1168    2.1868 O.2     1  UNL1       -0.2755
      4 O           6.5668   -0.8726    0.9370 O.3     1  UNL1       -0.4679
      5 O           6.1261   -0.0692   -1.1803 O.2     1  UNL1       -0.2508
      6 N           1.9677   -0.1879   -0.2406 N.3     1  UNL1       -0.3016
      7 N          -2.1328    0.3160    0.6468 N.am    1  UNL1       -0.2549
      8 C          -0.8331    0.6295    0.1003 C.3     1  UNL1        0.1408
      9 C           0.2078    0.7664    1.2157 C.3     1  UNL1       -0.0078
     10 C          -0.4010   -0.4294   -0.9186 C.3     1  UNL1       -0.0078
     11 C           1.6300    0.9160    0.6671 C.3     1  UNL1        0.0014
     12 C           1.0454   -0.2323   -1.3824 C.3     1  UNL1        0.0014
     13 C          -1.0854    1.9524   -0.5690 C.2     1  UNL1        0.3312
     14 C           3.3495   -0.0637   -0.7044 C.3     1  UNL1        0.0090
     15 C          -2.7750   -0.9157    0.1944 C.ar    1  UNL1        0.0374
     16 C          -2.7538    1.1022    1.6570 C.2     1  UNL1        0.2176
     17 C           4.3162   -0.5428    0.3746 C.3     1  UNL1        0.0576
     18 C          -3.6756   -0.8821   -0.8704 C.ar    1  UNL1       -0.0402
     19 C          -2.4874   -2.1255    0.8265 C.ar    1  UNL1       -0.0402
     20 C          -4.1348    0.6516    2.0748 C.3     1  UNL1        0.0127
     21 C           5.7558   -0.4544   -0.0799 C.2     1  UNL1        0.3080
     22 C          -2.4178    3.0026   -2.2138 C.3     1  UNL1        0.0817
     23 C          -4.2886   -2.0579   -1.3029 C.ar    1  UNL1       -0.0600
     24 C          -3.1005   -3.3014    0.3939 C.ar    1  UNL1       -0.0600
     25 C          -4.0010   -3.2675   -0.6709 C.ar    1  UNL1       -0.0616
     26 C           7.9702   -0.8452    0.6570 C.3     1  UNL1        0.0817
     27 H           0.0169    1.6245    1.8691 H       1  UNL1        0.0304
     28 H           0.1707   -0.1218    1.8621 H       1  UNL1        0.0304
     29 H          -0.4183   -1.4370   -0.4882 H       1  UNL1        0.0304
     30 H          -1.0335   -0.4450   -1.8146 H       1  UNL1        0.0304
     31 H           2.3007    0.9267    1.5326 H       1  UNL1        0.0427
     32 H           1.7496    1.8845    0.1665 H       1  UNL1        0.0427
     33 H           1.1240    0.6823   -1.9848 H       1  UNL1        0.0427
     34 H           1.3044   -1.0730   -2.0383 H       1  UNL1        0.0427
     35 H           3.5836    0.9603   -1.0240 H       1  UNL1        0.0432
     36 H           3.5074   -0.7007   -1.5855 H       1  UNL1        0.0432
     37 H           4.2329    0.0663    1.2802 H       1  UNL1        0.0390
     38 H           4.1053   -1.5885    0.6284 H       1  UNL1        0.0390
     39 H          -3.9241    0.0511   -1.3662 H       1  UNL1        0.0636
     40 H          -1.7895   -2.1626    1.6590 H       1  UNL1        0.0636
     41 H          -4.5145    1.3276    2.8480 H       1  UNL1        0.0323
     42 H          -4.8262    0.6923    1.2296 H       1  UNL1        0.0323
     43 H          -4.1049   -0.3534    2.5023 H       1  UNL1        0.0323
     44 H          -2.7848    3.7672   -1.5226 H       1  UNL1        0.0661
     45 H          -1.5531    3.3698   -2.7745 H       1  UNL1        0.0661
     46 H          -3.2152    2.7554   -2.9196 H       1  UNL1        0.0661
     47 H          -4.9924   -2.0312   -2.1297 H       1  UNL1        0.0618
     48 H          -2.8772   -4.2432    0.8865 H       1  UNL1        0.0618
     49 H          -4.4791   -4.1830   -1.0070 H       1  UNL1        0.0618
     50 H           8.2021   -1.5099   -0.1807 H       1  UNL1        0.0661
     51 H           8.2932    0.1775    0.4406 H       1  UNL1        0.0661
     52 H           8.5009   -1.2005    1.5443 H       1  UNL1        0.0661
@<TRIPOS>BOND
     1     1    13    1
     2     1    22    1
     3     2    13    2
     4     3    16    2
     5     4    21    1
     6     4    26    1
     7     5    21    2
     8     6    11    1
     9     6    12    1
    10     6    14    1
    11     7     8    1
    12     7    15    1
    13     7    16   am
    14     8     9    1
    15     8    10    1
    16     8    13    1
    17     9    11    1
    18     9    27    1
    19     9    28    1
    20    10    12    1
    21    10    29    1
    22    10    30    1
    23    11    31    1
    24    11    32    1
    25    12    33    1
    26    12    34    1
    27    14    17    1
    28    14    35    1
    29    14    36    1
    30    15    18   ar
    31    15    19   ar
    32    16    20    1
    33    17    21    1
    34    17    37    1
    35    17    38    1
    36    18    23   ar
    37    18    39    1
    38    19    24   ar
    39    19    40    1
    40    20    41    1
    41    20    42    1
    42    20    43    1
    43    22    44    1
    44    22    45    1
    45    22    46    1
    46    23    25   ar
    47    23    47    1
    48    24    25   ar
    49    24    48    1
    50    25    49    1
    51    26    50    1
    52    26    51    1
    53    26    52    1
@<TRIPOS>MOLECULE
131560
 52 53 0 0 0
SMALL
GASTEIGER

@<TRIPOS>ATOM
      1 O           0.1752    2.6856    0.6560 O.3     1  UNL1       -0.4664
      2 O          -1.2501    1.6185    2.1280 O.2     1  UNL1       -0.2484
      3 O          -2.0843    2.3823   -1.2687 O.2     1  UNL1       -0.2752
      4 O           6.8673   -1.0250   -1.5789 O.3     1  UNL1       -0.4806
      5 O           6.6520   -0.4377    0.6094 O.2     1  UNL1       -0.2510
      6 N           2.4066   -0.4064    0.0921 N.3     1  UNL1       -0.3016
      7 N          -1.7505    0.2575   -0.2742 N.am    1  UNL1       -0.2547
      8 C          -0.3980    0.4615    0.1902 C.3     1  UNL1        0.1408
      9 C           0.1107   -0.7715    0.9434 C.3     1  UNL1       -0.0078
     10 C           0.5321    0.8071   -0.9767 C.3     1  UNL1       -0.0078
     11 C           1.5988   -0.6662    1.2906 C.3     1  UNL1        0.0014
     12 C           2.0034    0.8495   -0.5531 C.3     1  UNL1        0.0014
     13 C          -0.5589    1.6337    1.1185 C.2     1  UNL1        0.3312
     14 C           3.8290   -0.3727    0.4319 C.3     1  UNL1        0.0090
     15 C          -2.3902   -1.0296   -0.0125 C.ar    1  UNL1        0.0374
     16 C          -2.4905    1.2546   -0.9769 C.2     1  UNL1        0.2205
     17 C           4.6750   -0.7086   -0.7926 C.3     1  UNL1        0.0575
     18 C          -3.9194    0.8606   -1.3400 C.3     1  UNL1        0.0217
     19 C          -2.2715   -2.0681   -0.9362 C.ar    1  UNL1       -0.0402
     20 C          -3.1192   -1.2205    1.1615 C.ar    1  UNL1       -0.0402
     21 C           6.1497   -0.6975   -0.4737 C.2     1  UNL1        0.3059
     22 C          -4.6572    1.9525   -2.0998 C.3     1  UNL1       -0.0570
     23 C           0.1123    3.8752    1.4490 C.3     1  UNL1        0.0817
     24 C          -2.8818   -3.2972   -0.6862 C.ar    1  UNL1       -0.0600
     25 C          -3.7295   -2.4497    1.4114 C.ar    1  UNL1       -0.0600
     26 C          -3.6108   -3.4879    0.4875 C.ar    1  UNL1       -0.0616
     27 H          -0.4333   -0.9361    1.8817 H       1  UNL1        0.0304
     28 H           0.0154   -1.6822    0.3400 H       1  UNL1        0.0304
     29 H           0.2809    1.7446   -1.4861 H       1  UNL1        0.0304
     30 H           0.4240    0.0328   -1.7510 H       1  UNL1        0.0304
     31 H           1.7531    0.1183    2.0432 H       1  UNL1        0.0427
     32 H           1.9033   -1.6161    1.7479 H       1  UNL1        0.0427
     33 H           2.5864    1.0084   -1.4672 H       1  UNL1        0.0427
     34 H           2.2189    1.7041    0.0969 H       1  UNL1        0.0427
     35 H           4.1240    0.5891    0.8720 H       1  UNL1        0.0432
     36 H           4.0527   -1.1326    1.1933 H       1  UNL1        0.0432
     37 H           4.5158    0.0194   -1.5947 H       1  UNL1        0.0390
     38 H           4.4151   -1.7074   -1.1628 H       1  UNL1        0.0390
     39 H          -3.9023   -0.0331   -1.9712 H       1  UNL1        0.0356
     40 H          -4.4798    0.6470   -0.4245 H       1  UNL1        0.0356
     41 H          -1.7058   -1.9294   -1.8538 H       1  UNL1        0.0636
     42 H          -3.2214   -0.4186    1.8876 H       1  UNL1        0.0636
     43 H          -4.7270    2.8684   -1.5038 H       1  UNL1        0.0234
     44 H          -4.1428    2.1974   -3.0349 H       1  UNL1        0.0234
     45 H          -5.6730    1.6264   -2.3440 H       1  UNL1        0.0234
     46 H          -0.9162    4.2459    1.4936 H       1  UNL1        0.0661
     47 H           0.4981    3.6805    2.4541 H       1  UNL1        0.0661
     48 H           0.7390    4.6339    0.9730 H       1  UNL1        0.0661
     49 H          -2.7894   -4.1056   -1.4056 H       1  UNL1        0.0618
     50 H          -4.2977   -2.5980    2.3251 H       1  UNL1        0.0618
     51 H          -4.0860   -4.4449    0.6821 H       1  UNL1        0.0618
     52 H           7.8320   -1.0266   -1.4012 H       1  UNL1        0.2951
@<TRIPOS>BOND
     1     1    13    1
     2     1    23    1
     3     2    13    2
     4     3    16    2
     5     4    21    1
     6     4    52    1
     7     5    21    2
     8     6    11    1
     9     6    12    1
    10     6    14    1
    11     7     8    1
    12     7    15    1
    13     7    16   am
    14     8     9    1
    15     8    10    1
    16     8    13    1
    17     9    11    1
    18     9    27    1
    19     9    28    1
    20    10    12    1
    21    10    29    1
    22    10    30    1
    23    11    31    1
    24    11    32    1
    25    12    33    1
    26    12    34    1
    27    14    17    1
    28    14    35    1
    29    14    36    1
    30    15    19   ar
    31    15    20   ar
    32    16    18    1
    33    17    21    1
    34    17    37    1
    35    17    38    1
    36    18    22    1
    37    18    39    1
    38    18    40    1
    39    19    24   ar
    40    19    41    1
    41    20    25   ar
    42    20    42    1
    43    22    43    1
    44    22    44    1
    45    22    45    1
    46    23    46    1
    47    23    47    1
    48    23    48    1
    49    24    26   ar
    50    24    49    1
    51    25    26   ar
    52    25    50    1
    53    26    51    1
@<TRIPOS>MOLECULE
125347258
 58 59 0 0 0
SMALL
GASTEIGER

@<TRIPOS>ATOM
      1 O          -1.5669   -1.0769    2.2814 O.3     1  UNL1       -0.4664
      2 O          -0.1514   -2.6287    1.3197 O.2     1  UNL1       -0.2484
      3 O          -2.1626   -2.3396   -1.1534 O.2     1  UNL1       -0.2752
      4 O           6.8850    0.2741   -1.5304 O.3     1  UNL1       -0.4679
      5 O           6.6281    0.1011    0.7557 O.2     1  UNL1       -0.2508
      6 N           2.4044    0.2380    0.1808 N.3     1  UNL1       -0.3016
      7 N          -1.7817   -0.2133   -0.1785 N.am    1  UNL1       -0.2547
      8 C          -0.4472   -0.4534    0.3193 C.3     1  UNL1        0.1408
      9 C           0.1277    0.8097    0.9673 C.3     1  UNL1       -0.0078
     10 C           0.4696   -0.9545   -0.8008 C.3     1  UNL1       -0.0078
     11 C           1.6044    0.6494    1.3414 C.3     1  UNL1        0.0014
     12 C           1.9327   -1.0448   -0.3565 C.3     1  UNL1        0.0014
     13 C          -0.6839   -1.5274    1.3452 C.2     1  UNL1        0.3312
     14 C           3.8198    0.1522    0.5402 C.3     1  UNL1        0.0090
     15 C          -2.3235    1.1352   -0.0272 C.ar    1  UNL1        0.0374
     16 C          -2.5384   -1.1956   -0.8852 C.2     1  UNL1        0.2207
     17 C           4.6913    0.2578   -0.7077 C.3     1  UNL1        0.0576
     18 C          -3.9461   -0.7596   -1.2851 C.3     1  UNL1        0.0243
     19 C          -3.1165    1.4484    1.0766 C.ar    1  UNL1       -0.0402
     20 C          -2.0478    2.1093   -0.9868 C.ar    1  UNL1       -0.0402
     21 C          -4.7100   -1.8496   -2.0383 C.3     1  UNL1       -0.0476
     22 C           6.1645    0.2000   -0.3721 C.2     1  UNL1        0.3080
     23 C          -1.8837   -2.0042    3.3243 C.3     1  UNL1        0.0817
     24 C          -3.6341    2.7357    1.2210 C.ar    1  UNL1       -0.0600
     25 C          -2.5652    3.3966   -0.8425 C.ar    1  UNL1       -0.0600
     26 C          -3.3585    3.7098    0.2614 C.ar    1  UNL1       -0.0616
     27 C          -6.1173   -1.3990   -2.3950 C.3     1  UNL1       -0.0648
     28 C           8.3071    0.2293   -1.3752 C.3     1  UNL1        0.0817
     29 H          -0.4102    1.1083    1.8754 H       1  UNL1        0.0304
     30 H           0.1087    1.6630    0.2801 H       1  UNL1        0.0304
     31 H           0.4034   -0.2731   -1.6606 H       1  UNL1        0.0304
     32 H           0.1800   -1.9425   -1.1744 H       1  UNL1        0.0304
     33 H           1.9618    1.6167    1.7166 H       1  UNL1        0.0427
     34 H           1.7062   -0.0723    2.1626 H       1  UNL1        0.0427
     35 H           2.0629   -1.8483    0.3785 H       1  UNL1        0.0427
     36 H           2.5118   -1.3327   -1.2402 H       1  UNL1        0.0427
     37 H           4.0912    0.9910    1.1957 H       1  UNL1        0.0432
     38 H           4.0435   -0.7611    1.1073 H       1  UNL1        0.0432
     39 H           4.4981    1.2079   -1.2197 H       1  UNL1        0.0390
     40 H           4.4927   -0.5659   -1.4007 H       1  UNL1        0.0390
     41 H          -3.8807    0.1239   -1.9287 H       1  UNL1        0.0358
     42 H          -4.5057   -0.5037   -0.3792 H       1  UNL1        0.0358
     43 H          -3.3545    0.7009    1.8270 H       1  UNL1        0.0636
     44 H          -1.4337    1.8750   -1.8525 H       1  UNL1        0.0636
     45 H          -4.1715   -2.1177   -2.9551 H       1  UNL1        0.0267
     46 H          -4.7684   -2.7576   -1.4262 H       1  UNL1        0.0267
     47 H          -2.5946   -1.5234    4.0016 H       1  UNL1        0.0661
     48 H          -0.9819   -2.2635    3.8870 H       1  UNL1        0.0661
     49 H          -2.3497   -2.9006    2.9043 H       1  UNL1        0.0661
     50 H          -4.2544    2.9786    2.0787 H       1  UNL1        0.0618
     51 H          -2.3513    4.1548   -1.5901 H       1  UNL1        0.0618
     52 H          -3.7622    4.7118    0.3733 H       1  UNL1        0.0618
     53 H          -6.6444   -2.1929   -2.9333 H       1  UNL1        0.0230
     54 H          -6.0944   -0.5115   -3.0354 H       1  UNL1        0.0230
     55 H          -6.6924   -1.1590   -1.4950 H       1  UNL1        0.0230
     56 H           8.7597    0.2967   -2.3681 H       1  UNL1        0.0661
     57 H           8.6083   -0.7168   -0.9154 H       1  UNL1        0.0661
     58 H           8.6494    1.0777   -0.7750 H       1  UNL1        0.0661
@<TRIPOS>BOND
     1     1    13    1
     2     1    23    1
     3     2    13    2
     4     3    16    2
     5     4    22    1
     6     4    28    1
     7     5    22    2
     8     6    11    1
     9     6    12    1
    10     6    14    1
    11     7     8    1
    12     7    15    1
    13     7    16   am
    14     8     9    1
    15     8    10    1
    16     8    13    1
    17     9    11    1
    18     9    29    1
    19     9    30    1
    20    10    12    1
    21    10    31    1
    22    10    32    1
    23    11    33    1
    24    11    34    1
    25    12    35    1
    26    12    36    1
    27    14    17    1
    28    14    37    1
    29    14    38    1
    30    15    19   ar
    31    15    20   ar
    32    16    18    1
    33    17    22    1
    34    17    39    1
    35    17    40    1
    36    18    21    1
    37    18    41    1
    38    18    42    1
    39    19    24   ar
    40    19    43    1
    41    20    25   ar
    42    20    44    1
    43    21    27    1
    44    21    45    1
    45    21    46    1
    46    23    47    1
    47    23    48    1
    48    23    49    1
    49    24    26   ar
    50    24    50    1
    51    25    26   ar
    52    25    51    1
    53    26    52    1
    54    27    53    1
    55    27    54    1
    56    27    55    1
    57    28    56    1
    58    28    57    1
    59    28    58    1
@<TRIPOS>MOLECULE
24779916
 50 51 0 0 0
SMALL
GASTEIGER

@<TRIPOS>ATOM
      1 O           3.0919    2.5370    0.6472 O.2     1  UNL1       -0.2752
      2 O          -6.3858   -1.3662    0.3127 O.3     1  UNL1       -0.4679
      3 O          -6.2548    0.9167    0.0059 O.2     1  UNL1       -0.2508
      4 N          -2.0127    0.6041    0.3134 N.3     1  UNL1       -0.3016
      5 N           2.1941    0.4290    0.0628 N.am    1  UNL1       -0.2523
      6 N           1.1291    2.5934   -2.2946 N.1     1  UNL1       -0.1943
      7 C           0.8663    0.8785   -0.3082 C.3     1  UNL1        0.1307
      8 C           0.0193   -0.3287   -0.7495 C.3     1  UNL1       -0.0049
      9 C           0.1960    1.5556    0.9007 C.3     1  UNL1       -0.0049
     10 C          -1.4655    0.0149   -0.9150 C.3     1  UNL1        0.0018
     11 C          -1.2951    1.8324    0.6766 C.3     1  UNL1        0.0018
     12 C          -3.4424    0.8725    0.1599 C.3     1  UNL1        0.0090
     13 C           1.0135    1.8389   -1.4208 C.1     1  UNL1        0.0890
     14 C           2.5014   -0.9932   -0.0335 C.ar    1  UNL1        0.0378
     15 C           3.2105    1.3160    0.5171 C.2     1  UNL1        0.2208
     16 C          -4.2438   -0.4165    0.3154 C.3     1  UNL1        0.0576
     17 C           4.5567    0.6625    0.8161 C.3     1  UNL1        0.0217
     18 C           2.2768   -1.8308    1.0591 C.ar    1  UNL1       -0.0402
     19 C           3.0193   -1.5164   -1.2184 C.ar    1  UNL1       -0.0402
     20 C          -5.7309   -0.1734    0.1893 C.2     1  UNL1        0.3080
     21 C           5.5972    1.6555    1.3112 C.3     1  UNL1       -0.0570
     22 C           2.5703   -3.1913    0.9670 C.ar    1  UNL1       -0.0600
     23 C           3.3126   -2.8770   -1.3104 C.ar    1  UNL1       -0.0600
     24 C           3.0881   -3.7143   -0.2177 C.ar    1  UNL1       -0.0616
     25 C          -7.8120   -1.2993    0.2137 C.3     1  UNL1        0.0817
     26 H           0.3713   -0.7463   -1.7020 H       1  UNL1        0.0309
     27 H           0.0330   -1.1340   -0.0062 H       1  UNL1        0.0309
     28 H           0.3011    0.9133    1.7868 H       1  UNL1        0.0309
     29 H           0.6791    2.5065    1.1553 H       1  UNL1        0.0309
     30 H          -1.5978    0.6926   -1.7686 H       1  UNL1        0.0427
     31 H          -1.9826   -0.9167   -1.1682 H       1  UNL1        0.0427
     32 H          -1.7016    2.2367    1.6121 H       1  UNL1        0.0427
     33 H          -1.4258    2.6056   -0.0915 H       1  UNL1        0.0427
     34 H          -3.6651    1.3684   -0.7942 H       1  UNL1        0.0432
     35 H          -3.7807    1.5607    0.9466 H       1  UNL1        0.0432
     36 H          -3.9765   -1.1451   -0.4564 H       1  UNL1        0.0390
     37 H          -4.0555   -0.8575    1.3014 H       1  UNL1        0.0390
     38 H           4.4274   -0.1011    1.5893 H       1  UNL1        0.0356
     39 H           4.9416    0.1936   -0.0948 H       1  UNL1        0.0356
     40 H           1.8746   -1.4331    1.9872 H       1  UNL1        0.0636
     41 H           3.1980   -0.8726   -2.0757 H       1  UNL1        0.0636
     42 H           5.2656    2.1466    2.2321 H       1  UNL1        0.0234
     43 H           5.7862    2.4332    0.5638 H       1  UNL1        0.0234
     44 H           6.5427    1.1445    1.5181 H       1  UNL1        0.0234
     45 H           2.3957   -3.8432    1.8180 H       1  UNL1        0.0618
     46 H           3.7157   -3.2844   -2.2329 H       1  UNL1        0.0618
     47 H           3.3166   -4.7737   -0.2894 H       1  UNL1        0.0618
     48 H          -8.2179   -0.6705    1.0119 H       1  UNL1        0.0661
     49 H          -8.1059   -0.9161   -0.7682 H       1  UNL1        0.0661
     50 H          -8.2087   -2.3116    0.3284 H       1  UNL1        0.0661
@<TRIPOS>BOND
     1     1    15    2
     2     2    20    1
     3     2    25    1
     4     3    20    2
     5     4    10    1
     6     4    11    1
     7     4    12    1
     8     5     7    1
     9     5    14    1
    10     5    15   am
    11     6    13    3
    12     7     8    1
    13     7     9    1
    14     7    13    1
    15     8    10    1
    16     8    26    1
    17     8    27    1
    18     9    11    1
    19     9    28    1
    20     9    29    1
    21    10    30    1
    22    10    31    1
    23    11    32    1
    24    11    33    1
    25    12    16    1
    26    12    34    1
    27    12    35    1
    28    14    18   ar
    29    14    19   ar
    30    15    17    1
    31    16    20    1
    32    16    36    1
    33    16    37    1
    34    17    21    1
    35    17    38    1
    36    17    39    1
    37    18    22   ar
    38    18    40    1
    39    19    23   ar
    40    19    41    1
    41    21    42    1
    42    21    43    1
    43    21    44    1
    44    22    24   ar
    45    22    45    1
    46    23    24   ar
    47    23    46    1
    48    24    47    1
    49    25    48    1
    50    25    49    1
    51    25    50    1
@<TRIPOS>MOLECULE
165361620
 61 62 0 0 0
SMALL
GASTEIGER

@<TRIPOS>ATOM
      1 O          -1.9734    1.4052   -1.6835 O.3     1  UNL1       -0.4634
      2 O          -1.1633    2.9761   -0.1962 O.2     1  UNL1       -0.2484
      3 O          -3.2215    1.7561    1.8628 O.2     1  UNL1       -0.2752
      4 O           6.4602   -0.8565   -0.0401 O.3     1  UNL1       -0.4649
      5 O           6.0636    1.3988    0.2425 O.2     1  UNL1       -0.2508
      6 N           1.9097    0.5222    0.6748 N.3     1  UNL1       -0.3016
      7 N          -2.2840    0.0103    0.5628 N.am    1  UNL1       -0.2547
      8 C          -1.0000    0.6199    0.2994 C.3     1  UNL1        0.1408
      9 C          -0.1017   -0.3372   -0.4888 C.3     1  UNL1       -0.0078
     10 C          -0.3240    1.0535    1.6043 C.3     1  UNL1       -0.0078
     11 C           1.3259    0.2021   -0.6343 C.3     1  UNL1        0.0014
     12 C           1.1121    1.5379    1.3741 C.3     1  UNL1        0.0014
     13 C          -1.3751    1.8182   -0.5301 C.2     1  UNL1        0.3315
     14 C           3.2922    0.9749    0.5209 C.3     1  UNL1        0.0090
     15 C          -2.4886   -1.3573    0.0909 C.ar    1  UNL1        0.0374
     16 C          -3.3025    0.6435    1.3362 C.2     1  UNL1        0.2205
     17 C           4.2365   -0.2057    0.3076 C.3     1  UNL1        0.0577
     18 C          -4.6032   -0.1451    1.4576 C.3     1  UNL1        0.0217
     19 C          -2.0822   -2.4346    0.8782 C.ar    1  UNL1       -0.0402
     20 C          -3.0908   -1.5857   -1.1464 C.ar    1  UNL1       -0.0402
     21 C          -2.3836    2.4493   -2.5720 C.3     1  UNL1        0.0897
     22 C           5.6746    0.2411    0.1723 C.2     1  UNL1        0.3083
     23 C          -5.6555    0.5770    2.2855 C.3     1  UNL1       -0.0570
     24 C          -2.2779   -3.7403    0.4283 C.ar    1  UNL1       -0.0600
     25 C          -3.2867   -2.8915   -1.5963 C.ar    1  UNL1       -0.0600
     26 C          -2.8802   -3.9687   -0.8089 C.ar    1  UNL1       -0.0616
     27 C          -3.0252    1.8316   -3.7960 C.3     1  UNL1       -0.0306
     28 C           7.8591   -0.5933   -0.1895 C.3     1  UNL1        0.0896
     29 C           8.5856   -1.9018   -0.4162 C.3     1  UNL1       -0.0306
     30 H          -0.4761   -0.5507   -1.4973 H       1  UNL1        0.0304
     31 H           0.0187   -1.2973    0.0256 H       1  UNL1        0.0304
     32 H          -0.3033    0.2069    2.3049 H       1  UNL1        0.0304
     33 H          -0.8626    1.8575    2.1168 H       1  UNL1        0.0304
     34 H           1.9111   -0.5697   -1.1455 H       1  UNL1        0.0427
     35 H           1.3213    1.0843   -1.2883 H       1  UNL1        0.0427
     36 H           1.1206    2.4871    0.8249 H       1  UNL1        0.0427
     37 H           1.5526    1.7376    2.3592 H       1  UNL1        0.0427
     38 H           3.3909    1.7123   -0.2869 H       1  UNL1        0.0432
     39 H           3.6205    1.4855    1.4368 H       1  UNL1        0.0432
     40 H           4.1736   -0.8927    1.1598 H       1  UNL1        0.0390
     41 H           3.9846   -0.7509   -0.6075 H       1  UNL1        0.0390
     42 H          -5.0139   -0.3160    0.4575 H       1  UNL1        0.0356
     43 H          -4.4012   -1.1095    1.9338 H       1  UNL1        0.0356
     44 H          -1.6152   -2.2679    1.8454 H       1  UNL1        0.0636
     45 H          -3.4252   -0.7600   -1.7668 H       1  UNL1        0.0636
     46 H          -3.1047    3.0989   -2.0635 H       1  UNL1        0.0694
     47 H          -1.5093    3.0387   -2.8698 H       1  UNL1        0.0694
     48 H          -5.9129    1.5431    1.8390 H       1  UNL1        0.0234
     49 H          -5.2968    0.7610    3.3037 H       1  UNL1        0.0234
     50 H          -6.5682   -0.0237    2.3483 H       1  UNL1        0.0234
     51 H          -1.9623   -4.5790    1.0418 H       1  UNL1        0.0618
     52 H          -3.7583   -3.0694   -2.5583 H       1  UNL1        0.0618
     53 H          -3.0335   -4.9854   -1.1588 H       1  UNL1        0.0618
     54 H          -2.3246    1.1573   -4.2995 H       1  UNL1        0.0262
     55 H          -3.8960    1.2312   -3.5128 H       1  UNL1        0.0262
     56 H          -3.3436    2.6032   -4.5024 H       1  UNL1        0.0262
     57 H           8.2389   -0.1114    0.7183 H       1  UNL1        0.0694
     58 H           8.0161    0.0707   -1.0469 H       1  UNL1        0.0694
     59 H           8.4231   -2.5836    0.4251 H       1  UNL1        0.0262
     60 H           8.2039   -2.4045   -1.3110 H       1  UNL1        0.0262
     61 H           9.6602   -1.7371   -0.5349 H       1  UNL1        0.0262
@<TRIPOS>BOND
     1     1    13    1
     2     1    21    1
     3     2    13    2
     4     3    16    2
     5     4    22    1
     6     4    28    1
     7     5    22    2
     8     6    11    1
     9     6    12    1
    10     6    14    1
    11     7     8    1
    12     7    15    1
    13     7    16   am
    14     8     9    1
    15     8    10    1
    16     8    13    1
    17     9    11    1
    18     9    30    1
    19     9    31    1
    20    10    12    1
    21    10    32    1
    22    10    33    1
    23    11    34    1
    24    11    35    1
    25    12    36    1
    26    12    37    1
    27    14    17    1
    28    14    38    1
    29    14    39    1
    30    15    19   ar
    31    15    20   ar
    32    16    18    1
    33    17    22    1
    34    17    40    1
    35    17    41    1
    36    18    23    1
    37    18    42    1
    38    18    43    1
    39    19    24   ar
    40    19    44    1
    41    20    25   ar
    42    20    45    1
    43    21    27    1
    44    21    46    1
    45    21    47    1
    46    23    48    1
    47    23    49    1
    48    23    50    1
    49    24    26   ar
    50    24    51    1
    51    25    26   ar
    52    25    52    1
    53    26    53    1
    54    27    54    1
    55    27    55    1
    56    27    56    1
    57    28    29    1
    58    28    57    1
    59    28    58    1
    60    29    59    1
    61    29    60    1
    62    29    61    1
@<TRIPOS>MOLECULE
16739772
 47 48 0 0 0
SMALL
GASTEIGER

@<TRIPOS>ATOM
      1 O          -2.1817    2.8253   -0.1105 O.3     1  UNL1       -0.4664
      2 O          -1.1813    1.7785    1.6895 O.2     1  UNL1       -0.2484
      3 O           5.9754   -1.7294    0.2356 O.3     1  UNL1       -0.4679
      4 O           5.8897    0.5746    0.3205 O.2     1  UNL1       -0.2508
      5 N           1.7360    0.3451   -0.6193 N.3     1  UNL1       -0.3016
      6 N          -2.4501    0.3016   -1.0187 N.pl3   1  UNL1       -0.3289
      7 C          -1.1745    0.7428   -0.4902 C.3     1  UNL1        0.1320
      8 C          -0.4689   -0.4353    0.1914 C.3     1  UNL1       -0.0084
      9 C          -0.3131    1.2977   -1.6304 C.3     1  UNL1       -0.0084
     10 C           0.9833   -0.1114    0.5560 C.3     1  UNL1        0.0014
     11 C           1.1331    1.5541   -1.1947 C.3     1  UNL1        0.0014
     12 C           3.1348    0.5894   -0.2675 C.3     1  UNL1        0.0090
     13 C          -1.4970    1.8216    0.5082 C.2     1  UNL1        0.3306
     14 C           3.8987   -0.7288   -0.1841 C.3     1  UNL1        0.0576
     15 C          -3.1929   -0.7234   -0.4632 C.ar    1  UNL1        0.0279
     16 C          -3.4994   -1.8533   -1.2217 C.ar    1  UNL1       -0.0408
     17 C          -3.6365   -0.6277    0.8559 C.ar    1  UNL1       -0.0408
     18 C           5.3573   -0.5138    0.1518 C.2     1  UNL1        0.3080
     19 C          -2.5547    3.9232    0.7283 C.3     1  UNL1        0.0817
     20 C          -4.2495   -2.8872   -0.6613 C.ar    1  UNL1       -0.0600
     21 C          -4.3866   -1.6616    1.4161 C.ar    1  UNL1       -0.0600
     22 C          -4.6930   -2.7914    0.6575 C.ar    1  UNL1       -0.0616
     23 C           7.3710   -1.6907    0.5506 C.3     1  UNL1        0.0817
     24 H          -0.9694   -0.7519    1.1141 H       1  UNL1        0.0304
     25 H          -0.4613   -1.3085   -0.4767 H       1  UNL1        0.0304
     26 H          -0.3001    0.5787   -2.4622 H       1  UNL1        0.0304
     27 H          -0.7313    2.2233   -2.0452 H       1  UNL1        0.0304
     28 H           1.0238    0.6335    1.3598 H       1  UNL1        0.0427
     29 H           1.4175   -1.0313    0.9619 H       1  UNL1        0.0427
     30 H           1.6975    1.8653   -2.0826 H       1  UNL1        0.0427
     31 H           1.1677    2.3877   -0.4811 H       1  UNL1        0.0427
     32 H          -2.5705    0.4101   -2.0224 H       1  UNL1        0.1471
     33 H           3.6171    1.1936   -1.0480 H       1  UNL1        0.0432
     34 H           3.2284    1.1646    0.6632 H       1  UNL1        0.0432
     35 H           3.4871   -1.3768    0.5961 H       1  UNL1        0.0390
     36 H           3.8468   -1.2528   -1.1459 H       1  UNL1        0.0390
     37 H          -3.1583   -1.9409   -2.2502 H       1  UNL1        0.0636
     38 H          -3.4330    0.2468    1.4654 H       1  UNL1        0.0636
     39 H          -3.0920    4.6519    0.1157 H       1  UNL1        0.0661
     40 H          -1.6628    4.4024    1.1432 H       1  UNL1        0.0661
     41 H          -3.2173    3.5797    1.5283 H       1  UNL1        0.0661
     42 H          -4.4879   -3.7670   -1.2518 H       1  UNL1        0.0618
     43 H          -4.7362   -1.5853    2.4416 H       1  UNL1        0.0618
     44 H          -5.2780   -3.5959    1.0935 H       1  UNL1        0.0618
     45 H           7.9194   -1.1480   -0.2253 H       1  UNL1        0.0661
     46 H           7.5255   -1.2274    1.5297 H       1  UNL1        0.0661
     47 H           7.7400   -2.7192    0.5869 H       1  UNL1        0.0661
@<TRIPOS>BOND
     1     1    13    1
     2     1    19    1
     3     2    13    2
     4     3    18    1
     5     3    23    1
     6     4    18    2
     7     5    10    1
     8     5    11    1
     9     5    12    1
    10     6     7    1
    11     6    15    1
    12     6    32    1
    13     7     8    1
    14     7     9    1
    15     7    13    1
    16     8    10    1
    17     8    24    1
    18     8    25    1
    19     9    11    1
    20     9    26    1
    21     9    27    1
    22    10    28    1
    23    10    29    1
    24    11    30    1
    25    11    31    1
    26    12    14    1
    27    12    33    1
    28    12    34    1
    29    14    18    1
    30    14    35    1
    31    14    36    1
    32    15    16   ar
    33    15    17   ar
    34    16    20   ar
    35    16    37    1
    36    17    21   ar
    37    17    38    1
    38    19    39    1
    39    19    40    1
    40    19    41    1
    41    20    22   ar
    42    20    42    1
    43    21    22   ar
    44    21    43    1
    45    22    44    1
    46    23    45    1
    47    23    46    1
    48    23    47    1
@<TRIPOS>MOLECULE
165361614
 58 59 0 0 0
SMALL
GASTEIGER

@<TRIPOS>ATOM
      1 F          -3.3665    4.9412    0.4621 F       1  UNL1       -0.2055
      2 O          -1.8282   -1.4023    2.1060 O.3     1  UNL1       -0.4664
      3 O          -0.9411   -3.1730    0.9169 O.2     1  UNL1       -0.2484
      4 O          -3.1103   -2.4942   -1.2735 O.2     1  UNL1       -0.2752
      5 O           6.4079    1.0249   -0.1780 O.3     1  UNL1       -0.4649
      6 O           6.1569   -1.2632   -0.0206 O.2     1  UNL1       -0.2508
      7 N           1.9473   -0.7429   -0.4884 N.3     1  UNL1       -0.3016
      8 N          -2.2686   -0.4794   -0.3522 N.am    1  UNL1       -0.2547
      9 C          -0.9428   -0.9476   -0.0167 C.3     1  UNL1        0.1408
     10 C          -0.2618   -1.5775   -1.2362 C.3     1  UNL1       -0.0078
     11 C          -0.0966    0.1950    0.5514 C.3     1  UNL1       -0.0078
     12 C           1.2070   -1.9199   -0.9612 C.3     1  UNL1        0.0014
     13 C           1.3659   -0.2177    0.7538 C.3     1  UNL1        0.0014
     14 C          -1.2236   -1.9882    1.0336 C.2     1  UNL1        0.3312
     15 C           3.3592   -1.0719   -0.2927 C.3     1  UNL1        0.0090
     16 C          -2.5553    0.9374   -0.1396 C.ar    1  UNL1        0.0376
     17 C          -3.2559   -1.3093   -0.9630 C.2     1  UNL1        0.2205
     18 C           4.2266    0.1838   -0.3324 C.3     1  UNL1        0.0577
     19 C          -4.6079   -0.6399   -1.1922 C.3     1  UNL1        0.0217
     20 C          -3.1503    1.3573    1.0500 C.ar    1  UNL1       -0.0375
     21 C          -2.2339    1.8700   -1.1258 C.ar    1  UNL1       -0.0375
     22 C           5.6933   -0.1394   -0.1576 C.2     1  UNL1        0.3083
     23 C          -5.6239   -1.5692   -1.8389 C.3     1  UNL1       -0.0570
     24 C          -2.1532   -2.2829    3.1862 C.3     1  UNL1        0.0817
     25 C          -3.4238    2.7100    1.2535 C.ar    1  UNL1       -0.0247
     26 C          -2.5072    3.2226   -0.9223 C.ar    1  UNL1       -0.0247
     27 C          -3.1022    3.6425    0.2674 C.ar    1  UNL1        0.1235
     28 C           7.8236    0.8818   -0.0227 C.3     1  UNL1        0.0896
     29 C           8.4655    2.2519   -0.0669 C.3     1  UNL1       -0.0306
     30 H          -0.3091   -0.8791   -2.0835 H       1  UNL1        0.0304
     31 H          -0.7546   -2.4957   -1.5727 H       1  UNL1        0.0304
     32 H          -0.4671    0.5721    1.5123 H       1  UNL1        0.0304
     33 H          -0.0487    1.0460   -0.1375 H       1  UNL1        0.0304
     34 H           1.2877   -2.7457   -0.2440 H       1  UNL1        0.0427
     35 H           1.6430   -2.2746   -1.9036 H       1  UNL1        0.0427
     36 H           1.9073    0.6716    1.0937 H       1  UNL1        0.0427
     37 H           1.4309   -0.9587    1.5616 H       1  UNL1        0.0427
     38 H           3.5202   -1.6357    0.6359 H       1  UNL1        0.0432
     39 H           3.7050   -1.7252   -1.1056 H       1  UNL1        0.0432
     40 H           4.1039    0.6920   -1.2961 H       1  UNL1        0.0390
     41 H           3.9548    0.8757    0.4712 H       1  UNL1        0.0390
     42 H          -4.4782    0.2277   -1.8467 H       1  UNL1        0.0356
     43 H          -5.0120   -0.3086   -0.2305 H       1  UNL1        0.0356
     44 H          -3.4185    0.6443    1.8237 H       1  UNL1        0.0637
     45 H          -1.7733    1.5531   -2.0579 H       1  UNL1        0.0637
     46 H          -6.5753   -1.0489   -1.9867 H       1  UNL1        0.0234
     47 H          -5.2711   -1.9200   -2.8144 H       1  UNL1        0.0234
     48 H          -5.8092   -2.4475   -1.2117 H       1  UNL1        0.0234
     49 H          -2.6289   -1.6926    3.9739 H       1  UNL1        0.0661
     50 H          -2.8559   -3.0509    2.8495 H       1  UNL1        0.0661
     51 H          -1.2440   -2.7392    3.5889 H       1  UNL1        0.0661
     52 H          -3.8897    3.0369    2.1783 H       1  UNL1        0.0647
     53 H          -2.2579    3.9487   -1.6903 H       1  UNL1        0.0647
     54 H           8.0387    0.4030    0.9391 H       1  UNL1        0.0694
     55 H           8.2190    0.2613   -0.8346 H       1  UNL1        0.0694
     56 H           8.2439    2.7509   -1.0161 H       1  UNL1        0.0262
     57 H           8.0666    2.8902    0.7284 H       1  UNL1        0.0262
     58 H           9.5505    2.1794    0.0492 H       1  UNL1        0.0262
@<TRIPOS>BOND
     1     1    27    1
     2     2    14    1
     3     2    24    1
     4     3    14    2
     5     4    17    2
     6     5    22    1
     7     5    28    1
     8     6    22    2
     9     7    12    1
    10     7    13    1
    11     7    15    1
    12     8     9    1
    13     8    16    1
    14     8    17   am
    15     9    10    1
    16     9    11    1
    17     9    14    1
    18    10    12    1
    19    10    30    1
    20    10    31    1
    21    11    13    1
    22    11    32    1
    23    11    33    1
    24    12    34    1
    25    12    35    1
    26    13    36    1
    27    13    37    1
    28    15    18    1
    29    15    38    1
    30    15    39    1
    31    16    20   ar
    32    16    21   ar
    33    17    19    1
    34    18    22    1
    35    18    40    1
    36    18    41    1
    37    19    23    1
    38    19    42    1
    39    19    43    1
    40    20    25   ar
    41    20    44    1
    42    21    26   ar
    43    21    45    1
    44    23    46    1
    45    23    47    1
    46    23    48    1
    47    24    49    1
    48    24    50    1
    49    24    51    1
    50    25    27   ar
    51    25    52    1
    52    26    27   ar
    53    26    53    1
    54    28    29    1
    55    28    54    1
    56    28    55    1
    57    29    56    1
    58    29    57    1
    59    29    58    1
@<TRIPOS>MOLECULE
12107
 22 22 0 0 0
SMALL
GASTEIGER

@<TRIPOS>ATOM
      1 O           1.8576   -1.2960   -0.0078 O.2     1  UNL1       -0.2755
      2 N           0.7027    0.7547   -0.0042 N.am    1  UNL1       -0.2855
      3 C          -0.6395    0.3737   -0.0009 C.ar    1  UNL1        0.0334
      4 C           3.1174    0.7562   -0.0104 C.3     1  UNL1        0.0215
      5 C           1.8395   -0.0696   -0.0073 C.2     1  UNL1        0.2169
      6 C          -1.6404    1.3451    0.0014 C.ar    1  UNL1       -0.0405
      7 C          -0.9802   -0.9788   -0.0008 C.ar    1  UNL1       -0.0405
      8 C           4.3701   -0.1008    0.0209 C.3     1  UNL1       -0.0570
      9 C          -2.9823    0.9640    0.0038 C.ar    1  UNL1       -0.0600
     10 C          -2.3220   -1.3600    0.0015 C.ar    1  UNL1       -0.0600
     11 C          -3.3230   -0.3886    0.0038 C.ar    1  UNL1       -0.0616
     12 H           3.1223    1.3815   -0.9104 H       1  UNL1        0.0356
     13 H           3.1049    1.4183    0.8629 H       1  UNL1        0.0356
     14 H           0.8678    1.7593   -0.0048 H       1  UNL1        0.1548
     15 H          -1.3895    2.4028    0.0012 H       1  UNL1        0.0636
     16 H          -0.2639   -1.7882   -0.0026 H       1  UNL1        0.0636
     17 H           4.3950   -0.7280    0.9181 H       1  UNL1        0.0234
     18 H           5.2639    0.5306    0.0201 H       1  UNL1        0.0234
     19 H           4.4170   -0.7609   -0.8515 H       1  UNL1        0.0234
     20 H          -3.7618    1.7203    0.0056 H       1  UNL1        0.0618
     21 H          -2.5888   -2.4129    0.0015 H       1  UNL1        0.0618
     22 H          -4.3678   -0.6854    0.0056 H       1  UNL1        0.0618
@<TRIPOS>BOND
     1     1     5    2
     2     2     3    1
     3     2     5   am
     4     2    14    1
     5     3     6   ar
     6     3     7   ar
     7     4     5    1
     8     4     8    1
     9     4    12    1
    10     4    13    1
    11     6     9   ar
    12     6    15    1
    13     7    10   ar
    14     7    16    1
    15     8    17    1
    16     8    18    1
    17     8    19    1
    18     9    11   ar
    19     9    20    1
    20    10    11   ar
    21    10    21    1
    22    11    22    1
@<TRIPOS>MOLECULE
2724433
 56 58 0 0 0
SMALL
GASTEIGER

@<TRIPOS>ATOM
      1 O          -0.1479    2.6302    0.8288 O.3     1  UNL1       -0.4664
      2 O          -1.8714    1.7229    2.0712 O.2     1  UNL1       -0.2484
      3 O          -2.0505    2.3392   -1.4508 O.2     1  UNL1       -0.2752
      4 N           1.9534   -0.6012    0.8117 N.3     1  UNL1       -0.2980
      5 N          -2.0268    0.2584   -0.3173 N.am    1  UNL1       -0.2547
      6 C          -0.7664    0.4168    0.3703 C.3     1  UNL1        0.1408
      7 C          -0.4739   -0.7974    1.2572 C.3     1  UNL1       -0.0078
      8 C           0.3728    0.6476   -0.6272 C.3     1  UNL1       -0.0078
      9 C           0.9342   -0.7512    1.8582 C.3     1  UNL1        0.0017
     10 C           1.7471    0.6364    0.0486 C.3     1  UNL1        0.0017
     11 C          -1.0148    1.6457    1.2009 C.2     1  UNL1        0.3312
     12 C           3.2939   -0.6232    1.3969 C.3     1  UNL1        0.0240
     13 C          -2.7803   -0.9767   -0.1151 C.ar    1  UNL1        0.0374
     14 C          -2.5700    1.2524   -1.1849 C.2     1  UNL1        0.2205
     15 C           4.3672   -0.5496    0.3435 C.ar    1  UNL1       -0.0334
     16 C          -3.9349    0.9143   -1.7778 C.3     1  UNL1        0.0217
     17 C          -2.5321   -2.0143   -0.9638 C.ar    1  UNL1       -0.0402
     18 C          -3.6798   -1.0079    0.9090 C.ar    1  UNL1       -0.0402
     19 C           4.8655   -1.7221   -0.2072 C.ar    1  UNL1       -0.0573
     20 C           4.8426    0.6895   -0.0625 C.ar    1  UNL1       -0.0573
     21 C          -4.4600    1.9994   -2.7055 C.3     1  UNL1       -0.0570
     22 C          -0.2752    3.8637    1.5431 C.3     1  UNL1        0.0817
     23 C          -3.2512   -3.1938   -0.7707 C.ar    1  UNL1       -0.0600
     24 C          -4.3986   -2.1876    1.1022 C.ar    1  UNL1       -0.0600
     25 C          -4.1843   -3.2806    0.2623 C.ar    1  UNL1       -0.0616
     26 C           5.8596   -1.6540   -1.1833 C.ar    1  UNL1       -0.0615
     27 C           5.8367    0.7575   -1.0387 C.ar    1  UNL1       -0.0615
     28 C           6.3451   -0.4144   -1.5991 C.ar    1  UNL1       -0.0617
     29 H          -0.5164   -1.7350    0.6903 H       1  UNL1        0.0304
     30 H          -1.1811   -0.8807    2.0918 H       1  UNL1        0.0304
     31 H           0.2716    1.5670   -1.2157 H       1  UNL1        0.0304
     32 H           0.3531   -0.1621   -1.3723 H       1  UNL1        0.0304
     33 H           1.1002   -1.6869    2.4064 H       1  UNL1        0.0427
     34 H           1.0001    0.0658    2.5889 H       1  UNL1        0.0427
     35 H           1.9079    1.5183    0.6774 H       1  UNL1        0.0427
     36 H           2.4452    0.7038   -0.7904 H       1  UNL1        0.0427
     37 H           3.4300    0.1945    2.1188 H       1  UNL1        0.0476
     38 H           3.4355   -1.5493    1.9705 H       1  UNL1        0.0476
     39 H          -4.6599    0.7827   -0.9688 H       1  UNL1        0.0356
     40 H          -3.8638   -0.0122   -2.3556 H       1  UNL1        0.0356
     41 H          -1.8065   -1.9466   -1.7675 H       1  UNL1        0.0636
     42 H          -3.8518   -0.1586    1.5610 H       1  UNL1        0.0636
     43 H           4.4931   -2.6928    0.1075 H       1  UNL1        0.0621
     44 H           4.4688    1.6107    0.3757 H       1  UNL1        0.0621
     45 H          -5.4356    1.7141   -3.1112 H       1  UNL1        0.0234
     46 H          -3.7760    2.1646   -3.5445 H       1  UNL1        0.0234
     47 H          -4.5765    2.9496   -2.1737 H       1  UNL1        0.0234
     48 H          -0.0840    3.7053    2.6086 H       1  UNL1        0.0661
     49 H           0.4707    4.5608    1.1522 H       1  UNL1        0.0661
     50 H          -1.2707    4.2899    1.3872 H       1  UNL1        0.0661
     51 H          -3.0842   -4.0447   -1.4247 H       1  UNL1        0.0618
     52 H          -5.1260   -2.2548    1.9059 H       1  UNL1        0.0618
     53 H          -4.7442   -4.1989    0.4126 H       1  UNL1        0.0618
     54 H           6.2553   -2.5663   -1.6200 H       1  UNL1        0.0618
     55 H           6.2173    1.7226   -1.3599 H       1  UNL1        0.0618
     56 H           7.1196   -0.3614   -2.3586 H       1  UNL1        0.0618
@<TRIPOS>BOND
     1     1    11    1
     2     1    22    1
     3     2    11    2
     4     3    14    2
     5     4     9    1
     6     4    10    1
     7     4    12    1
     8     5     6    1
     9     5    13    1
    10     5    14   am
    11     6     7    1
    12     6     8    1
    13     6    11    1
    14     7     9    1
    15     7    29    1
    16     7    30    1
    17     8    10    1
    18     8    31    1
    19     8    32    1
    20     9    33    1
    21     9    34    1
    22    10    35    1
    23    10    36    1
    24    12    15    1
    25    12    37    1
    26    12    38    1
    27    13    17   ar
    28    13    18   ar
    29    14    16    1
    30    15    19   ar
    31    15    20   ar
    32    16    21    1
    33    16    39    1
    34    16    40    1
    35    17    23   ar
    36    17    41    1
    37    18    24   ar
    38    18    42    1
    39    19    26   ar
    40    19    43    1
    41    20    27   ar
    42    20    44    1
    43    21    45    1
    44    21    46    1
    45    21    47    1
    46    22    48    1
    47    22    49    1
    48    22    50    1
    49    23    25   ar
    50    23    51    1
    51    24    25   ar
    52    24    52    1
    53    25    53    1
    54    26    28   ar
    55    26    54    1
    56    27    28   ar
    57    27    55    1
    58    28    56    1
@<TRIPOS>MOLECULE
135391039
 50 52 0 0 0
SMALL
GASTEIGER

@<TRIPOS>ATOM
      1 O          -0.2537    3.1363   -0.5384 O.2     1  UNL1       -0.2386
      2 O           6.4059   -1.1130    0.9533 O.3     1  UNL1       -0.4679
      3 O           6.2116    0.3897   -0.7862 O.2     1  UNL1       -0.2508
      4 N          -2.2602    0.3650    0.1604 N.pl3   1  UNL1       -0.1754
      5 N           1.9725    0.1069   -0.4117 N.3     1  UNL1       -0.3015
      6 N          -2.4594    2.6129   -0.0800 N.am    1  UNL1        0.0250
      7 C          -0.8663    0.7855   -0.1032 C.3     1  UNL1        0.2107
      8 C          -0.2996    0.1914   -1.3997 C.3     1  UNL1        0.0135
      9 C           0.0575    0.5470    1.0960 C.3     1  UNL1        0.0135
     10 C           1.1904    0.4947   -1.5922 C.3     1  UNL1        0.0034
     11 C           1.5285    0.8411    0.7800 C.3     1  UNL1        0.0034
     12 C          -1.1199    2.3133   -0.2728 C.2     1  UNL1        0.3886
     13 C          -3.0689    1.4822    0.1583 C.2     1  UNL1        0.2888
     14 C           3.3986    0.3326   -0.6479 C.3     1  UNL1        0.0090
     15 C          -2.7001   -0.9533    0.0117 C.ar    1  UNL1        0.1216
     16 C          -4.5477    1.4548    0.4033 C.3     1  UNL1        0.0466
     17 C           4.2349   -0.5257    0.2964 C.3     1  UNL1        0.0576
     18 C          -3.3767   -1.3366   -1.1462 C.ar    1  UNL1       -0.0169
     19 C          -2.4625   -1.8858    1.0215 C.ar    1  UNL1       -0.0169
     20 C          -4.8385    1.5797    1.8829 C.3     1  UNL1       -0.0545
     21 C           5.7172   -0.3391    0.0628 C.2     1  UNL1        0.3080
     22 C          -3.8159   -2.6522   -1.2945 C.ar    1  UNL1       -0.0579
     23 C          -2.9015   -3.2014    0.8734 C.ar    1  UNL1       -0.0579
     24 C          -3.5784   -3.5846   -0.2846 C.ar    1  UNL1       -0.0615
     25 C           7.8321   -1.0416    0.8574 C.3     1  UNL1        0.0817
     26 H          -0.8555    0.5604   -2.2710 H       1  UNL1        0.0326
     27 H          -0.4139   -0.9001   -1.3960 H       1  UNL1        0.0326
     28 H          -0.0110   -0.4983    1.4183 H       1  UNL1        0.0326
     29 H          -0.2553    1.1558    1.9539 H       1  UNL1        0.0326
     30 H           1.3367    1.5556   -1.8293 H       1  UNL1        0.0428
     31 H           1.5309   -0.0741   -2.4668 H       1  UNL1        0.0428
     32 H           2.1045    0.5432    1.6623 H       1  UNL1        0.0428
     33 H           1.6804    1.9206    0.6580 H       1  UNL1        0.0428
     34 H           3.6641    1.3947   -0.5627 H       1  UNL1        0.0432
     35 H           3.6606    0.0349   -1.6725 H       1  UNL1        0.0432
     36 H          -5.0060    2.2945   -0.1318 H       1  UNL1        0.0382
     37 H          -4.9979    0.5405    0.0112 H       1  UNL1        0.0382
     38 H           3.9997   -1.5860    0.1453 H       1  UNL1        0.0390
     39 H           4.0448   -0.2656    1.3425 H       1  UNL1        0.0390
     40 H          -3.5644   -0.6227   -1.9444 H       1  UNL1        0.0658
     41 H          -1.9544   -1.6010    1.9384 H       1  UNL1        0.0658
     42 H          -4.4050    0.7435    2.4417 H       1  UNL1        0.0235
     43 H          -5.9180    1.5871    2.0617 H       1  UNL1        0.0235
     44 H          -4.4179    2.5046    2.2919 H       1  UNL1        0.0235
     45 H          -4.3419   -2.9508   -2.1966 H       1  UNL1        0.0619
     46 H          -2.7204   -3.9264    1.6615 H       1  UNL1        0.0619
     47 H          -3.9209   -4.6088   -0.3996 H       1  UNL1        0.0618
     48 H           8.2575   -1.7015    1.6181 H       1  UNL1        0.0661
     49 H           8.1738   -0.0198    1.0481 H       1  UNL1        0.0661
     50 H           8.1629   -1.3828   -0.1282 H       1  UNL1        0.0661
@<TRIPOS>BOND
     1     1    12    2
     2     2    21    1
     3     2    25    1
     4     3    21    2
     5     4     7    1
     6     4    13    1
     7     4    15    1
     8     5    10    1
     9     5    11    1
    10     5    14    1
    11     6    12    1
    12     6    13    2
    13     7     8    1
    14     7     9    1
    15     7    12    1
    16     8    10    1
    17     8    26    1
    18     8    27    1
    19     9    11    1
    20     9    28    1
    21     9    29    1
    22    10    30    1
    23    10    31    1
    24    11    32    1
    25    11    33    1
    26    13    16    1
    27    14    17    1
    28    14    34    1
    29    14    35    1
    30    15    18   ar
    31    15    19   ar
    32    16    20    1
    33    16    36    1
    34    16    37    1
    35    17    21    1
    36    17    38    1
    37    17    39    1
    38    18    22   ar
    39    18    40    1
    40    19    23   ar
    41    19    41    1
    42    20    42    1
    43    20    43    1
    44    20    44    1
    45    22    24   ar
    46    22    45    1
    47    23    24   ar
    48    23    46    1
    49    24    47    1
    50    25    48    1
    51    25    49    1
    52    25    50    1
@<TRIPOS>MOLECULE
24780059
 42 43 0 0 0
SMALL
GASTEIGER

@<TRIPOS>ATOM
      1 O          -5.6938    1.8009    0.0771 O.3     1  UNL1       -0.4679
      2 O          -5.7249   -0.4811    0.4163 O.2     1  UNL1       -0.2508
      3 N          -1.5609   -0.5637   -0.5020 N.3     1  UNL1       -0.3016
      4 N           2.6162   -0.7972   -0.9121 N.pl3   1  UNL1       -0.3263
      5 N           1.7333   -2.9740    1.5192 N.1     1  UNL1       -0.1943
      6 C           1.3297   -1.1493   -0.3392 C.3     1  UNL1        0.1216
      7 C           0.6935    0.1133    0.2661 C.3     1  UNL1       -0.0055
      8 C           0.4234   -1.6984   -1.4538 C.3     1  UNL1       -0.0055
      9 C          -0.7776   -0.0910    0.6465 C.3     1  UNL1        0.0018
     10 C          -1.0381   -1.8376   -1.0119 C.3     1  UNL1        0.0018
     11 C          -2.9717   -0.6977   -0.1393 C.3     1  UNL1        0.0090
     12 C           1.5557   -2.1707    0.7011 C.1     1  UNL1        0.0884
     13 C          -3.6684    0.6580   -0.2092 C.3     1  UNL1        0.0576
     14 C           3.4137    0.2182   -0.4230 C.ar    1  UNL1        0.0282
     15 C          -5.1375    0.5542    0.1340 C.2     1  UNL1        0.3080
     16 C           3.7576    1.2918   -1.2445 C.ar    1  UNL1       -0.0408
     17 C           3.8747    0.1710    0.8925 C.ar    1  UNL1       -0.0408
     18 C           4.5626    2.3183   -0.7504 C.ar    1  UNL1       -0.0600
     19 C           4.6796    1.1974    1.3867 C.ar    1  UNL1       -0.0600
     20 C           5.0236    2.2711    0.5652 C.ar    1  UNL1       -0.0616
     21 C          -7.0909    1.8667    0.3807 C.3     1  UNL1        0.0817
     22 H           1.2148    0.4477    1.1714 H       1  UNL1        0.0308
     23 H           0.7386    0.9444   -0.4525 H       1  UNL1        0.0308
     24 H           0.4569   -1.0261   -2.3233 H       1  UNL1        0.0308
     25 H           0.7879   -2.6718   -1.8081 H       1  UNL1        0.0308
     26 H          -0.8502   -0.7927    1.4878 H       1  UNL1        0.0427
     27 H          -1.1564    0.8729    1.0037 H       1  UNL1        0.0427
     28 H          -1.6196   -2.1547   -1.8865 H       1  UNL1        0.0427
     29 H          -1.1317   -2.6302   -0.2582 H       1  UNL1        0.0427
     30 H          -3.4830   -1.3579   -0.8535 H       1  UNL1        0.0432
     31 H          -3.1000   -1.1642    0.8464 H       1  UNL1        0.0432
     32 H           2.7151   -0.9659   -1.9099 H       1  UNL1        0.1476
     33 H          -3.2221    1.3650    0.4979 H       1  UNL1        0.0390
     34 H          -3.5862    1.0690   -1.2224 H       1  UNL1        0.0390
     35 H           3.4033    1.3415   -2.2711 H       1  UNL1        0.0636
     36 H           3.6396   -0.6583    1.5519 H       1  UNL1        0.0636
     37 H           4.8302    3.1544   -1.3898 H       1  UNL1        0.0618
     38 H           5.0419    1.1592    2.4099 H       1  UNL1        0.0618
     39 H           5.6511    3.0698    0.9498 H       1  UNL1        0.0618
     40 H          -7.6627    1.2695   -0.3360 H       1  UNL1        0.0661
     41 H          -7.2728    1.5226    1.4034 H       1  UNL1        0.0661
     42 H          -7.4077    2.9098    0.2998 H       1  UNL1        0.0661
@<TRIPOS>BOND
     1     1    15    1
     2     1    21    1
     3     2    15    2
     4     3     9    1
     5     3    10    1
     6     3    11    1
     7     4     6    1
     8     4    14    1
     9     4    32    1
    10     5    12    3
    11     6     7    1
    12     6     8    1
    13     6    12    1
    14     7     9    1
    15     7    22    1
    16     7    23    1
    17     8    10    1
    18     8    24    1
    19     8    25    1
    20     9    26    1
    21     9    27    1
    22    10    28    1
    23    10    29    1
    24    11    13    1
    25    11    30    1
    26    11    31    1
    27    13    15    1
    28    13    33    1
    29    13    34    1
    30    14    16   ar
    31    14    17   ar
    32    16    18   ar
    33    16    35    1
    34    17    19   ar
    35    17    36    1
    36    18    20   ar
    37    18    37    1
    38    19    20   ar
    39    19    38    1
    40    20    39    1
    41    21    40    1
    42    21    41    1
    43    21    42    1
@<TRIPOS>MOLECULE
165411948
 63 64 0 0 0
SMALL
GASTEIGER

@<TRIPOS>ATOM
      1 O          -1.0986   -1.3410   -1.9298 O.3     1  UNL1       -0.4664
      2 O           0.3371   -2.7354   -0.7762 O.2     1  UNL1       -0.2484
      3 O          -1.6649   -2.0843    1.5401 O.2     1  UNL1       -0.2745
      4 O           7.5347    0.4382    1.2341 O.3     1  UNL1       -0.4679
      5 O          -4.3871   -1.8045   -0.1084 O.2     1  UNL1       -0.2966
      6 O           7.1463   -0.1161   -0.9716 O.2     1  UNL1       -0.2508
      7 N           2.9584    0.2218   -0.2249 N.3     1  UNL1       -0.3016
      8 N          -1.2152   -0.0786    0.3694 N.am    1  UNL1       -0.2541
      9 C           0.0957   -0.4217   -0.1340 C.3     1  UNL1        0.1408
     10 C           1.0476   -0.7454    1.0208 C.3     1  UNL1       -0.0078
     11 C           0.6579    0.7063   -1.0054 C.3     1  UNL1       -0.0078
     12 C           2.4900   -0.9412    0.5398 C.3     1  UNL1        0.0014
     13 C           2.1157    0.4512   -1.4056 C.3     1  UNL1        0.0014
     14 C          -0.1865   -1.6455   -0.9632 C.2     1  UNL1        0.3312
     15 C           4.3553    0.0442   -0.6209 C.3     1  UNL1        0.0090
     16 C          -2.0012   -0.9523    1.1786 C.2     1  UNL1        0.2307
     17 C          -1.7641    1.2313    0.0319 C.ar    1  UNL1        0.0375
     18 C           5.2982    0.3389    0.5432 C.3     1  UNL1        0.0576
     19 C          -3.3841   -0.4224    1.5932 C.3     1  UNL1        0.0914
     20 C          -2.5306    1.3896   -1.1227 C.ar    1  UNL1       -0.0402
     21 C          -1.5228    2.3244    0.8641 C.ar    1  UNL1       -0.0402
     22 C          -3.7856   -0.9752    2.9630 C.3     1  UNL1       -0.0472
     23 C          -4.4733   -0.7919    0.5869 C.2     1  UNL1        0.1446
     24 C           6.7489    0.1855    0.1454 C.2     1  UNL1        0.3080
     25 C          -1.4608   -2.4210   -2.7961 C.3     1  UNL1        0.0817
     26 C          -3.0558    2.6410   -1.4450 C.ar    1  UNL1       -0.0600
     27 C          -2.0479    3.5757    0.5419 C.ar    1  UNL1       -0.0600
     28 C          -5.6481    0.1675    0.4743 C.3     1  UNL1        0.0037
     29 C          -2.8145    3.7341   -0.6127 C.ar    1  UNL1       -0.0616
     30 C          -6.6900   -0.3049   -0.5242 C.3     1  UNL1       -0.0586
     31 C           8.9450    0.3319    1.0140 C.3     1  UNL1        0.0817
     32 H           0.7495   -1.6463    1.5689 H       1  UNL1        0.0304
     33 H           1.0277    0.0746    1.7525 H       1  UNL1        0.0304
     34 H           0.6685    1.6616   -0.4665 H       1  UNL1        0.0304
     35 H           0.0877    0.8596   -1.9295 H       1  UNL1        0.0304
     36 H           3.1031   -1.0865    1.4357 H       1  UNL1        0.0427
     37 H           2.5782   -1.8603   -0.0517 H       1  UNL1        0.0427
     38 H           2.1710   -0.3994   -2.0977 H       1  UNL1        0.0427
     39 H           2.4713    1.3342   -1.9513 H       1  UNL1        0.0427
     40 H           4.6072    0.7516   -1.4230 H       1  UNL1        0.0432
     41 H           4.5369   -0.9568   -1.0346 H       1  UNL1        0.0432
     42 H           5.1493    1.3672    0.8931 H       1  UNL1        0.0390
     43 H           5.1218   -0.3490    1.3763 H       1  UNL1        0.0390
     44 H          -3.3757    0.6614    1.7104 H       1  UNL1        0.0469
     45 H          -2.7453    0.5507   -1.7766 H       1  UNL1        0.0636
     46 H          -0.9275    2.2110    1.7664 H       1  UNL1        0.0636
     47 H          -3.9415   -2.0595    2.9279 H       1  UNL1        0.0241
     48 H          -3.0095   -0.7710    3.7085 H       1  UNL1        0.0241
     49 H          -4.7195   -0.5227    3.3128 H       1  UNL1        0.0241
     50 H          -2.1897   -2.0459   -3.5193 H       1  UNL1        0.0661
     51 H          -0.5818   -2.7832   -3.3376 H       1  UNL1        0.0661
     52 H          -1.9215   -3.2289   -2.2198 H       1  UNL1        0.0661
     53 H          -3.6565    2.7632   -2.3414 H       1  UNL1        0.0618
     54 H          -1.8604    4.4266    1.1902 H       1  UNL1        0.0618
     55 H          -5.2712    1.1492    0.1742 H       1  UNL1        0.0339
     56 H          -6.1121    0.2609    1.4612 H       1  UNL1        0.0339
     57 H          -3.2245    4.7081   -0.8630 H       1  UNL1        0.0618
     58 H          -7.0903   -1.2842   -0.2419 H       1  UNL1        0.0234
     59 H          -7.5219    0.4044   -0.5709 H       1  UNL1        0.0234
     60 H          -6.2602   -0.3941   -1.5274 H       1  UNL1        0.0234
     61 H           9.2661    1.0565    0.2596 H       1  UNL1        0.0661
     62 H           9.2048   -0.6861    0.7083 H       1  UNL1        0.0661
     63 H           9.4539    0.5563    1.9552 H       1  UNL1        0.0661
@<TRIPOS>BOND
     1     1    14    1
     2     1    25    1
     3     2    14    2
     4     3    16    2
     5     4    24    1
     6     4    31    1
     7     5    23    2
     8     6    24    2
     9     7    12    1
    10     7    13    1
    11     7    15    1
    12     8     9    1
    13     8    16   am
    14     8    17    1
    15     9    10    1
    16     9    11    1
    17     9    14    1
    18    10    12    1
    19    10    32    1
    20    10    33    1
    21    11    13    1
    22    11    34    1
    23    11    35    1
    24    12    36    1
    25    12    37    1
    26    13    38    1
    27    13    39    1
    28    15    18    1
    29    15    40    1
    30    15    41    1
    31    16    19    1
    32    17    20   ar
    33    17    21   ar
    34    18    24    1
    35    18    42    1
    36    18    43    1
    37    19    22    1
    38    19    23    1
    39    19    44    1
    40    20    26   ar
    41    20    45    1
    42    21    27   ar
    43    21    46    1
    44    22    47    1
    45    22    48    1
    46    22    49    1
    47    23    28    1
    48    25    50    1
    49    25    51    1
    50    25    52    1
    51    26    29   ar
    52    26    53    1
    53    27    29   ar
    54    27    54    1
    55    28    30    1
    56    28    55    1
    57    28    56    1
    58    29    57    1
    59    30    58    1
    60    30    59    1
    61    30    60    1
    62    31    61    1
    63    31    62    1
    64    31    63    1
@<TRIPOS>MOLECULE
12298013
 46 47 0 0 0
SMALL
GASTEIGER

@<TRIPOS>ATOM
      1 O          -2.2576   -1.7235    0.5752 O.3     1  UNL1       -0.4664
      2 O          -0.7517   -1.0095    2.1751 O.2     1  UNL1       -0.2484
      3 O           0.1842   -2.6601   -0.8608 O.2     1  UNL1       -0.2752
      4 N          -2.9461    1.8114   -0.7987 N.3     1  UNL1       -0.3052
      5 N           0.5957   -0.4179   -0.2141 N.am    1  UNL1       -0.2547
      6 C          -0.7757   -0.0083   -0.0197 C.3     1  UNL1        0.1408
      7 C          -1.5873   -0.1950   -1.3052 C.3     1  UNL1       -0.0078
      8 C          -0.8470    1.4443    0.4613 C.3     1  UNL1       -0.0078
      9 C          -2.9950    0.3979   -1.1940 C.3     1  UNL1        0.0011
     10 C          -2.2843    1.9721    0.5022 C.3     1  UNL1        0.0011
     11 C          -1.2368   -0.9562    1.0531 C.2     1  UNL1        0.3312
     12 C          -4.2942    2.3780   -0.7599 C.3     1  UNL1       -0.0128
     13 C           1.6550    0.5602    0.0216 C.ar    1  UNL1        0.0374
     14 C           0.9638   -1.7334   -0.6257 C.2     1  UNL1        0.2205
     15 C           2.4664   -1.9801   -0.7283 C.3     1  UNL1        0.0217
     16 C           2.0520    1.3279   -1.0328 C.ar    1  UNL1       -0.0402
     17 C           2.1738    0.6392    1.2798 C.ar    1  UNL1       -0.0402
     18 C           2.8024   -3.3917   -1.1847 C.3     1  UNL1       -0.0570
     19 C          -2.7948   -2.6762    1.4983 C.3     1  UNL1        0.0817
     20 C           3.0630    2.2621   -0.8080 C.ar    1  UNL1       -0.0600
     21 C           3.1847    1.5737    1.5046 C.ar    1  UNL1       -0.0600
     22 C           3.6294    2.3851    0.4606 C.ar    1  UNL1       -0.0616
     23 H          -1.6650   -1.2365   -1.6380 H       1  UNL1        0.0304
     24 H          -1.0660    0.3203   -2.1257 H       1  UNL1        0.0304
     25 H          -0.3081    2.1225   -0.2109 H       1  UNL1        0.0304
     26 H          -0.4262    1.5688    1.4668 H       1  UNL1        0.0304
     27 H          -3.4615    0.3200   -2.1845 H       1  UNL1        0.0427
     28 H          -3.6326   -0.1721   -0.5100 H       1  UNL1        0.0427
     29 H          -2.8468    1.4593    1.2936 H       1  UNL1        0.0427
     30 H          -2.2489    3.0353    0.7708 H       1  UNL1        0.0427
     31 H          -4.7729    2.3004   -1.7424 H       1  UNL1        0.0391
     32 H          -4.2557    3.4452   -0.5142 H       1  UNL1        0.0391
     33 H          -4.9336    1.8776   -0.0237 H       1  UNL1        0.0391
     34 H           2.9277   -1.8240    0.2516 H       1  UNL1        0.0356
     35 H           2.9033   -1.2837   -1.4502 H       1  UNL1        0.0356
     36 H           1.6116    1.2318   -2.0197 H       1  UNL1        0.0636
     37 H           1.8333    0.0070    2.0925 H       1  UNL1        0.0636
     38 H           3.8870   -3.5226   -1.2494 H       1  UNL1        0.0234
     39 H           2.3737   -3.5988   -2.1708 H       1  UNL1        0.0234
     40 H           2.4103   -4.1359   -0.4837 H       1  UNL1        0.0234
     41 H          -2.0212   -3.3893    1.7986 H       1  UNL1        0.0661
     42 H          -3.5983   -3.2205    0.9953 H       1  UNL1        0.0661
     43 H          -3.2099   -2.1642    2.3715 H       1  UNL1        0.0661
     44 H           3.4092    2.8937   -1.6208 H       1  UNL1        0.0618
     45 H           3.6265    1.6687    2.4923 H       1  UNL1        0.0618
     46 H           4.4168    3.1123    0.6357 H       1  UNL1        0.0618
@<TRIPOS>BOND
     1     1    11    1
     2     1    19    1
     3     2    11    2
     4     3    14    2
     5     4     9    1
     6     4    10    1
     7     4    12    1
     8     5     6    1
     9     5    13    1
    10     5    14   am
    11     6     7    1
    12     6     8    1
    13     6    11    1
    14     7     9    1
    15     7    23    1
    16     7    24    1
    17     8    10    1
    18     8    25    1
    19     8    26    1
    20     9    27    1
    21     9    28    1
    22    10    29    1
    23    10    30    1
    24    12    31    1
    25    12    32    1
    26    12    33    1
    27    13    16   ar
    28    13    17   ar
    29    14    15    1
    30    15    18    1
    31    15    34    1
    32    15    35    1
    33    16    20   ar
    34    16    36    1
    35    17    21   ar
    36    17    37    1
    37    18    38    1
    38    18    39    1
    39    18    40    1
    40    19    41    1
    41    19    42    1
    42    19    43    1
    43    20    22   ar
    44    20    44    1
    45    21    22   ar
    46    21    45    1
    47    22    46    1
@<TRIPOS>MOLECULE
135391032
 44 46 0 0 0
SMALL
GASTEIGER

@<TRIPOS>ATOM
      1 N          -1.5126   -1.0692   -0.3420 N.3     1  UNL1       -0.2980
      2 N           2.6347   -0.7678   -0.9584 N.pl3   1  UNL1       -0.3279
      3 C           1.4336   -1.2803   -0.3245 C.3     1  UNL1        0.0957
      4 C           0.5508   -1.9427   -1.3954 C.3     1  UNL1       -0.0075
      5 C           0.6720   -0.1082    0.3172 C.3     1  UNL1       -0.0075
      6 C          -0.8572   -2.2668   -0.8827 C.3     1  UNL1        0.0021
      7 C          -0.7404   -0.4981    0.7686 C.3     1  UNL1        0.0021
      8 C          -2.8751   -1.3817    0.0891 C.3     1  UNL1        0.0240
      9 C           1.8393   -2.2625    0.6990 C.1     1  UNL1       -0.0797
     10 C          -3.7513   -0.1575    0.1100 C.ar    1  UNL1       -0.0334
     11 C           3.3192    0.3422   -0.5046 C.ar    1  UNL1        0.0282
     12 C          -3.8416    0.6161    1.2671 C.ar    1  UNL1       -0.0573
     13 C          -4.4728    0.2028   -1.0280 C.ar    1  UNL1       -0.0573
     14 C           3.4808    1.4502   -1.3363 C.ar    1  UNL1       -0.0408
     15 C           3.8492    0.3554    0.7855 C.ar    1  UNL1       -0.0408
     16 C           2.1689   -3.0619    1.5317 C.1     1  UNL1       -0.1170
     17 C          -4.6536    1.7502    1.2862 C.ar    1  UNL1       -0.0615
     18 C          -5.2847    1.3368   -1.0090 C.ar    1  UNL1       -0.0615
     19 C           4.1726    2.5715   -0.8779 C.ar    1  UNL1       -0.0600
     20 C           4.5408    1.4764    1.2440 C.ar    1  UNL1       -0.0600
     21 C          -5.3752    2.1105    0.1482 C.ar    1  UNL1       -0.0617
     22 C           4.7025    2.5845    0.4123 C.ar    1  UNL1       -0.0616
     23 H           1.0186   -2.8621   -1.7722 H       1  UNL1        0.0308
     24 H           0.4551   -1.2730   -2.2623 H       1  UNL1        0.0308
     25 H           0.5753    0.7201   -0.3997 H       1  UNL1        0.0308
     26 H           1.1907    0.2925    1.1968 H       1  UNL1        0.0308
     27 H          -1.4362   -2.6569   -1.7291 H       1  UNL1        0.0428
     28 H          -0.8119   -3.0637   -0.1292 H       1  UNL1        0.0428
     29 H          -0.6852   -1.1962    1.6140 H       1  UNL1        0.0428
     30 H          -1.2038    0.4211    1.1381 H       1  UNL1        0.0428
     31 H          -3.3411   -2.0956   -0.6048 H       1  UNL1        0.0476
     32 H          -2.8934   -1.8868    1.0648 H       1  UNL1        0.0476
     33 H           2.7047   -0.9241   -1.9606 H       1  UNL1        0.1475
     34 H          -3.3006    0.3401    2.1681 H       1  UNL1        0.0621
     35 H          -4.4098   -0.3897   -1.9369 H       1  UNL1        0.0621
     36 H           3.0711    1.4533   -2.3433 H       1  UNL1        0.0636
     37 H           3.7568   -0.4961    1.4516 H       1  UNL1        0.0636
     38 H           2.4612   -3.7705    2.2708 H       1  UNL1        0.1229
     39 H          -4.7273    2.3504    2.1884 H       1  UNL1        0.0618
     40 H          -5.8463    1.6178   -1.8952 H       1  UNL1        0.0618
     41 H           4.2983    3.4344   -1.5253 H       1  UNL1        0.0618
     42 H           4.9570    1.4855    2.2472 H       1  UNL1        0.0618
     43 H          -6.0080    2.9930    0.1632 H       1  UNL1        0.0618
     44 H           5.2418    3.4572    0.7690 H       1  UNL1        0.0618
@<TRIPOS>BOND
     1     1     6    1
     2     1     7    1
     3     1     8    1
     4     2     3    1
     5     2    11    1
     6     2    33    1
     7     3     4    1
     8     3     5    1
     9     3     9    1
    10     4     6    1
    11     4    23    1
    12     4    24    1
    13     5     7    1
    14     5    25    1
    15     5    26    1
    16     6    27    1
    17     6    28    1
    18     7    29    1
    19     7    30    1
    20     8    10    1
    21     8    31    1
    22     8    32    1
    23     9    16    3
    24    10    12   ar
    25    10    13   ar
    26    11    14   ar
    27    11    15   ar
    28    12    17   ar
    29    12    34    1
    30    13    18   ar
    31    13    35    1
    32    14    19   ar
    33    14    36    1
    34    15    20   ar
    35    15    37    1
    36    16    38    1
    37    17    21   ar
    38    17    39    1
    39    18    21   ar
    40    18    40    1
    41    19    22   ar
    42    19    41    1
    43    20    22   ar
    44    20    42    1
    45    21    43    1
    46    22    44    1
@<TRIPOS>MOLECULE
135391061
 43 44 0 0 0
SMALL
GASTEIGER

@<TRIPOS>ATOM
      1 O          -5.6948    1.8001    0.0846 O.3     1  UNL1       -0.4679
      2 O          -5.7250   -0.4829    0.4147 O.2     1  UNL1       -0.2508
      3 N          -1.5614   -0.5604   -0.5054 N.3     1  UNL1       -0.3016
      4 N           2.6156   -0.7909   -0.9176 N.pl3   1  UNL1       -0.3279
      5 C           1.3294   -1.1459   -0.3459 C.3     1  UNL1        0.0957
      6 C           0.4229   -1.6903   -1.4626 C.3     1  UNL1       -0.0075
      7 C           0.6930    0.1139    0.2652 C.3     1  UNL1       -0.0075
      8 C          -1.0384   -1.8319   -1.0209 C.3     1  UNL1        0.0017
      9 C          -0.7780   -0.0924    0.6449 C.3     1  UNL1        0.0017
     10 C          -2.9721   -0.6964   -0.1429 C.3     1  UNL1        0.0090
     11 C           1.5560   -2.1717    0.6900 C.1     1  UNL1       -0.0797
     12 C          -3.6692    0.6592   -0.2071 C.3     1  UNL1        0.0576
     13 C           3.4131    0.2227   -0.4243 C.ar    1  UNL1        0.0282
     14 C          -5.1381    0.5536    0.1358 C.2     1  UNL1        0.3080
     15 C           3.7551    1.3009   -1.2403 C.ar    1  UNL1       -0.0408
     16 C           3.8765    0.1682    0.8901 C.ar    1  UNL1       -0.0408
     17 C           1.7397   -3.0065    1.5328 C.1     1  UNL1       -0.1170
     18 C           4.5609    2.3247   -0.7419 C.ar    1  UNL1       -0.0600
     19 C           4.6821    1.1919    1.3886 C.ar    1  UNL1       -0.0600
     20 C           5.0243    2.2702    0.5726 C.ar    1  UNL1       -0.0616
     21 C          -7.0917    1.8640    0.3896 C.3     1  UNL1        0.0817
     22 H           0.7876   -2.6620   -1.8218 H       1  UNL1        0.0308
     23 H           0.4560   -1.0140   -2.3290 H       1  UNL1        0.0308
     24 H           0.7375    0.9480   -0.4501 H       1  UNL1        0.0308
     25 H           1.2145    0.4451    1.1715 H       1  UNL1        0.0308
     26 H          -1.1321   -2.6281   -0.2711 H       1  UNL1        0.0427
     27 H          -1.6198   -2.1452   -1.8970 H       1  UNL1        0.0427
     28 H          -1.1570    0.8699    1.0060 H       1  UNL1        0.0427
     29 H          -0.8507   -0.7974    1.4836 H       1  UNL1        0.0427
     30 H          -3.4833   -1.3538   -0.8598 H       1  UNL1        0.0432
     31 H          -3.1000   -1.1670    0.8409 H       1  UNL1        0.0432
     32 H           2.7143   -0.9550   -1.9162 H       1  UNL1        0.1475
     33 H          -3.5872    1.0744   -1.2187 H       1  UNL1        0.0390
     34 H          -3.2230    1.3635    0.5027 H       1  UNL1        0.0390
     35 H           3.3991    1.3562   -2.2660 H       1  UNL1        0.0636
     36 H           3.6438   -0.6644    1.5457 H       1  UNL1        0.0636
     37 H           1.9028   -3.7466    2.2808 H       1  UNL1        0.1229
     38 H           4.8272    3.1645   -1.3771 H       1  UNL1        0.0618
     39 H           5.0464    1.1479    2.4109 H       1  UNL1        0.0618
     40 H           5.6523    3.0669    0.9605 H       1  UNL1        0.0618
     41 H          -7.4090    2.9074    0.3131 H       1  UNL1        0.0661
     42 H          -7.2725    1.5160    1.4111 H       1  UNL1        0.0661
     43 H          -7.6638    1.2694   -0.3289 H       1  UNL1        0.0661
@<TRIPOS>BOND
     1     1    14    1
     2     1    21    1
     3     2    14    2
     4     3     8    1
     5     3     9    1
     6     3    10    1
     7     4     5    1
     8     4    13    1
     9     4    32    1
    10     5     6    1
    11     5     7    1
    12     5    11    1
    13     6     8    1
    14     6    22    1
    15     6    23    1
    16     7     9    1
    17     7    24    1
    18     7    25    1
    19     8    26    1
    20     8    27    1
    21     9    28    1
    22     9    29    1
    23    10    12    1
    24    10    30    1
    25    10    31    1
    26    11    17    3
    27    12    14    1
    28    12    33    1
    29    12    34    1
    30    13    15   ar
    31    13    16   ar
    32    15    18   ar
    33    15    35    1
    34    16    19   ar
    35    16    36    1
    36    17    37    1
    37    18    20   ar
    38    18    38    1
    39    19    20   ar
    40    19    39    1
    41    20    40    1
    42    21    41    1
    43    21    42    1
    44    21    43    1
@<TRIPOS>MOLECULE
2724430
 48 50 0 0 0
SMALL
GASTEIGER

@<TRIPOS>ATOM
      1 O          -1.5522    2.6986   -0.8136 O.3     1  UNL1       -0.4664
      2 O          -1.4582    2.1235    1.4218 O.2     1  UNL1       -0.2484
      3 N           1.5600   -0.3971    0.7641 N.3     1  UNL1       -0.2980
      4 N          -2.1636    0.0923   -1.1280 N.pl3   1  UNL1       -0.3289
      5 C          -1.0449    0.4712   -0.2877 C.3     1  UNL1        0.1320
      6 C           0.2378    0.5002   -1.1267 C.3     1  UNL1       -0.0084
      7 C          -0.9098   -0.5302    0.8653 C.3     1  UNL1       -0.0084
      8 C           1.4942    0.6503   -0.2629 C.3     1  UNL1        0.0017
      9 C           0.3913   -0.3400    1.6512 C.3     1  UNL1        0.0017
     10 C           2.7957   -0.2772    1.5379 C.3     1  UNL1        0.0240
     11 C          -1.3723    1.8443    0.2337 C.2     1  UNL1        0.3306
     12 C          -3.2776   -0.5785   -0.6589 C.ar    1  UNL1        0.0279
     13 C           3.9751   -0.4170    0.6244 C.ar    1  UNL1       -0.0334
     14 C          -3.6357   -1.8397   -1.1753 C.ar    1  UNL1       -0.0408
     15 C          -4.0883   -0.0219    0.3503 C.ar    1  UNL1       -0.0408
     16 C           4.5199   -1.6753    0.3875 C.ar    1  UNL1       -0.0573
     17 C           4.5180    0.7124    0.0196 C.ar    1  UNL1       -0.0573
     18 C          -1.8717    4.0477   -0.4587 C.3     1  UNL1        0.0817
     19 C          -4.7593   -2.5171   -0.7016 C.ar    1  UNL1       -0.0600
     20 C          -5.2118   -0.6993    0.8242 C.ar    1  UNL1       -0.0600
     21 C           5.6182   -1.8056   -0.4625 C.ar    1  UNL1       -0.0615
     22 C           5.6162    0.5822   -0.8306 C.ar    1  UNL1       -0.0615
     23 C          -5.5473   -1.9469    0.2981 C.ar    1  UNL1       -0.0616
     24 C           6.1662   -0.6768   -1.0715 C.ar    1  UNL1       -0.0617
     25 H           0.2175    1.3030   -1.8744 H       1  UNL1        0.0304
     26 H           0.3205   -0.4358   -1.6984 H       1  UNL1        0.0304
     27 H          -0.9200   -1.5581    0.4752 H       1  UNL1        0.0304
     28 H          -1.7341   -0.4609    1.5848 H       1  UNL1        0.0304
     29 H           2.3060    0.5718   -0.9890 H       1  UNL1        0.0427
     30 H           1.5253    1.6533    0.1819 H       1  UNL1        0.0427
     31 H           0.3737    0.6004    2.2147 H       1  UNL1        0.0427
     32 H           0.4549   -1.1485    2.3906 H       1  UNL1        0.0427
     33 H          -1.9354   -0.1076   -2.0984 H       1  UNL1        0.1471
     34 H           2.8430   -1.0624    2.3039 H       1  UNL1        0.0476
     35 H           2.8469    0.6780    2.0786 H       1  UNL1        0.0476
     36 H          -3.0310   -2.2995   -1.9541 H       1  UNL1        0.0636
     37 H          -3.8665    0.9558    0.7684 H       1  UNL1        0.0636
     38 H           4.1007   -2.5624    0.8546 H       1  UNL1        0.0621
     39 H           4.1164    1.7037    0.2120 H       1  UNL1        0.0621
     40 H          -2.8133    4.0794    0.0977 H       1  UNL1        0.0661
     41 H          -1.9890    4.6231   -1.3807 H       1  UNL1        0.0661
     42 H          -1.0598    4.4867    0.1289 H       1  UNL1        0.0661
     43 H          -5.0205   -3.4886   -1.1108 H       1  UNL1        0.0618
     44 H          -5.8280   -0.2537    1.5997 H       1  UNL1        0.0618
     45 H           6.0464   -2.7858   -0.6504 H       1  UNL1        0.0618
     46 H           6.0461    1.4615   -1.3012 H       1  UNL1        0.0618
     47 H          -6.4226   -2.4739    0.6664 H       1  UNL1        0.0618
     48 H           7.0220   -0.7780   -1.7326 H       1  UNL1        0.0618
@<TRIPOS>BOND
     1     1    11    1
     2     1    18    1
     3     2    11    2
     4     3     8    1
     5     3     9    1
     6     3    10    1
     7     4     5    1
     8     4    12    1
     9     4    33    1
    10     5     6    1
    11     5     7    1
    12     5    11    1
    13     6     8    1
    14     6    25    1
    15     6    26    1
    16     7     9    1
    17     7    27    1
    18     7    28    1
    19     8    29    1
    20     8    30    1
    21     9    31    1
    22     9    32    1
    23    10    13    1
    24    10    34    1
    25    10    35    1
    26    12    14   ar
    27    12    15   ar
    28    13    16   ar
    29    13    17   ar
    30    14    19   ar
    31    14    36    1
    32    15    20   ar
    33    15    37    1
    34    16    21   ar
    35    16    38    1
    36    17    22   ar
    37    17    39    1
    38    18    40    1
    39    18    41    1
    40    18    42    1
    41    19    23   ar
    42    19    43    1
    43    20    23   ar
    44    20    44    1
    45    21    24   ar
    46    21    45    1
    47    22    24   ar
    48    22    46    1
    49    23    47    1
    50    24    48    1
@<TRIPOS>MOLECULE
2724431
 43 44 0 0 0
SMALL
GASTEIGER

@<TRIPOS>ATOM
      1 O           2.8128   -0.8992   -0.5039 O.3     1  UNL1       -0.4664
      2 O           1.2392   -0.4713   -2.1403 O.2     1  UNL1       -0.2484
      3 O           0.6236   -2.5229    0.7429 O.2     1  UNL1       -0.2752
      4 N          -0.3130   -0.4119    0.2101 N.am    1  UNL1       -0.2547
      5 N           2.5332    2.5823    1.1130 N.3     1  UNL1       -0.3158
      6 C           0.9188    0.3381    0.1106 C.3     1  UNL1        0.1408
      7 C           1.7014    0.2660    1.4268 C.3     1  UNL1       -0.0080
      8 C           0.6422    1.7940   -0.2852 C.3     1  UNL1       -0.0080
      9 C           2.9106    1.2037    1.4290 C.3     1  UNL1       -0.0016
     10 C           1.9013    2.6601   -0.2051 C.3     1  UNL1       -0.0016
     11 C           1.6496   -0.3809   -0.9911 C.2     1  UNL1        0.3312
     12 C          -1.5749    0.2877   -0.0210 C.ar    1  UNL1        0.0374
     13 C          -0.3542   -1.8035    0.5235 C.2     1  UNL1        0.2205
     14 C          -1.7501   -2.4203    0.5338 C.3     1  UNL1        0.0217
     15 C          -2.1879    0.8570    1.0551 C.ar    1  UNL1       -0.0402
     16 C          -2.0520    0.3239   -1.2973 C.ar    1  UNL1       -0.0402
     17 C          -1.7382   -3.8998    0.8877 C.3     1  UNL1       -0.0570
     18 C          -3.3921    1.5255    0.8341 C.ar    1  UNL1       -0.0600
     19 C          -3.2560    0.9925   -1.5184 C.ar    1  UNL1       -0.0600
     20 C           3.6119   -1.6142   -1.4518 C.3     1  UNL1        0.0817
     21 C          -3.9260    1.5933   -0.4527 C.ar    1  UNL1       -0.0616
     22 H           2.0319   -0.7434    1.6972 H       1  UNL1        0.0304
     23 H           1.0346    0.5696    2.2475 H       1  UNL1        0.0304
     24 H          -0.0804    2.2692    0.3883 H       1  UNL1        0.0304
     25 H           0.2500    1.8787   -1.3063 H       1  UNL1        0.0304
     26 H           3.3572    1.1951    2.4303 H       1  UNL1        0.0425
     27 H           3.7053    0.8792    0.7508 H       1  UNL1        0.0425
     28 H           2.6200    2.3678   -0.9802 H       1  UNL1        0.0425
     29 H           1.6373    3.7043   -0.4072 H       1  UNL1        0.0425
     30 H           1.8721    2.9136    1.8160 H       1  UNL1        0.1219
     31 H          -2.2013   -2.3147   -0.4575 H       1  UNL1        0.0356
     32 H          -2.3722   -1.9062    1.2725 H       1  UNL1        0.0356
     33 H          -1.7725    0.8039    2.0560 H       1  UNL1        0.0636
     34 H          -1.5352   -0.1454   -2.1273 H       1  UNL1        0.0636
     35 H          -2.7573   -4.2990    0.8888 H       1  UNL1        0.0234
     36 H          -1.3060   -4.0633    1.8805 H       1  UNL1        0.0234
     37 H          -1.1482   -4.4727    0.1648 H       1  UNL1        0.0234
     38 H          -3.9137    1.9932    1.6640 H       1  UNL1        0.0618
     39 H          -3.6723    1.0445   -2.5202 H       1  UNL1        0.0618
     40 H           3.0590   -2.4753   -1.8391 H       1  UNL1        0.0661
     41 H           4.5074   -1.9738   -0.9382 H       1  UNL1        0.0661
     42 H           3.9164   -0.9506   -2.2666 H       1  UNL1        0.0661
     43 H          -4.8636    2.1137   -0.6248 H       1  UNL1        0.0618
@<TRIPOS>BOND
     1     1    11    1
     2     1    20    1
     3     2    11    2
     4     3    13    2
     5     4     6    1
     6     4    12    1
     7     4    13   am
     8     5     9    1
     9     5    10    1
    10     5    30    1
    11     6     7    1
    12     6     8    1
    13     6    11    1
    14     7     9    1
    15     7    22    1
    16     7    23    1
    17     8    10    1
    18     8    24    1
    19     8    25    1
    20     9    26    1
    21     9    27    1
    22    10    28    1
    23    10    29    1
    24    12    15   ar
    25    12    16   ar
    26    13    14    1
    27    14    17    1
    28    14    31    1
    29    14    32    1
    30    15    18   ar
    31    15    33    1
    32    16    19   ar
    33    16    34    1
    34    17    35    1
    35    17    36    1
    36    17    37    1
    37    18    21   ar
    38    18    38    1
    39    19    21   ar
    40    19    39    1
    41    20    40    1
    42    20    41    1
    43    20    42    1
    44    21    43    1
@<TRIPOS>MOLECULE
70412
 43 45 0 0 0
SMALL
GASTEIGER

@<TRIPOS>ATOM
      1 N          -1.5332    1.1502    0.5963 N.3     1  UNL1       -0.2980
      2 N           2.6592    0.9212    0.8042 N.pl3   1  UNL1       -0.3263
      3 N           1.9002    2.8245   -1.8848 N.1     1  UNL1       -0.1943
      4 C           1.3922    1.3450    0.2364 C.3     1  UNL1        0.1216
      5 C           0.5799    0.0980   -0.1512 C.3     1  UNL1       -0.0055
      6 C           0.6206    2.1540    1.2925 C.3     1  UNL1       -0.0055
      7 C          -0.8765    0.4267   -0.4997 C.3     1  UNL1        0.0021
      8 C          -0.8373    2.4089    0.8923 C.3     1  UNL1        0.0021
      9 C          -2.9368    1.4050    0.2732 C.3     1  UNL1        0.0240
     10 C           1.6766    2.1732   -0.9510 C.1     1  UNL1        0.0884
     11 C          -3.7008    0.1328    0.0452 C.ar    1  UNL1       -0.0334
     12 C           3.3038   -0.2439    0.4392 C.ar    1  UNL1        0.0282
     13 C          -3.7727   -0.4064   -1.2339 C.ar    1  UNL1       -0.0573
     14 C          -4.3289   -0.4932    1.1155 C.ar    1  UNL1       -0.0573
     15 C           3.5799   -1.2498    1.3878 C.ar    1  UNL1       -0.0408
     16 C           3.7060   -0.4657   -0.8938 C.ar    1  UNL1       -0.0408
     17 C          -4.4828   -1.5882   -1.4458 C.ar    1  UNL1       -0.0615
     18 C          -5.0390   -1.6750    0.9037 C.ar    1  UNL1       -0.0615
     19 C           4.2305   -2.4274    1.0192 C.ar    1  UNL1       -0.0600
     20 C           4.3563   -1.6432   -1.2626 C.ar    1  UNL1       -0.0600
     21 C          -5.1159   -2.2225   -0.3770 C.ar    1  UNL1       -0.0617
     22 C           4.6187   -2.6240   -0.3060 C.ar    1  UNL1       -0.0616
     23 H           0.5698   -0.6217    0.6804 H       1  UNL1        0.0308
     24 H           1.0083   -0.4230   -1.0163 H       1  UNL1        0.0308
     25 H           1.1156    3.1152    1.4852 H       1  UNL1        0.0308
     26 H           0.6245    1.6126    2.2496 H       1  UNL1        0.0308
     27 H          -0.9216    0.9938   -1.4384 H       1  UNL1        0.0428
     28 H          -1.3353   -0.5501   -0.6733 H       1  UNL1        0.0428
     29 H          -1.3319    2.9162    1.7299 H       1  UNL1        0.0428
     30 H          -0.8775    3.0923    0.0342 H       1  UNL1        0.0428
     31 H          -3.0324    2.0553   -0.6079 H       1  UNL1        0.0476
     32 H          -3.4150    1.9533    1.0963 H       1  UNL1        0.0476
     33 H           2.8297    1.2093    1.7643 H       1  UNL1        0.1476
     34 H          -3.2988    0.0834   -2.0802 H       1  UNL1        0.0621
     35 H          -4.2743   -0.0773    2.1178 H       1  UNL1        0.0621
     36 H           3.2824   -1.1136    2.4254 H       1  UNL1        0.0636
     37 H           3.5314    0.2831   -1.6611 H       1  UNL1        0.0636
     38 H          -4.5458   -2.0126   -2.4436 H       1  UNL1        0.0618
     39 H          -5.5317   -2.1692    1.7360 H       1  UNL1        0.0618
     40 H           4.4344   -3.1913    1.7638 H       1  UNL1        0.0618
     41 H           4.6617   -1.7953   -2.2937 H       1  UNL1        0.0618
     42 H          -5.6694   -3.1423   -0.5420 H       1  UNL1        0.0618
     43 H           5.1258   -3.5405   -0.5931 H       1  UNL1        0.0618
@<TRIPOS>BOND
     1     1     7    1
     2     1     8    1
     3     1     9    1
     4     2     4    1
     5     2    12    1
     6     2    33    1
     7     3    10    3
     8     4     5    1
     9     4     6    1
    10     4    10    1
    11     5     7    1
    12     5    23    1
    13     5    24    1
    14     6     8    1
    15     6    25    1
    16     6    26    1
    17     7    27    1
    18     7    28    1
    19     8    29    1
    20     8    30    1
    21     9    11    1
    22     9    31    1
    23     9    32    1
    24    11    13   ar
    25    11    14   ar
    26    12    15   ar
    27    12    16   ar
    28    13    17   ar
    29    13    34    1
    30    14    18   ar
    31    14    35    1
    32    15    19   ar
    33    15    36    1
    34    16    20   ar
    35    16    37    1
    36    17    21   ar
    37    17    38    1
    38    18    21   ar
    39    18    39    1
    40    19    22   ar
    41    19    40    1
    42    20    22   ar
    43    20    41    1
    44    21    42    1
    45    22    43    1
@<TRIPOS>MOLECULE
70668
 46 48 0 0 0
SMALL
GASTEIGER

@<TRIPOS>ATOM
      1 O          -2.3996    2.9112   -1.1361 O.2     1  UNL1       -0.2737
      2 N           1.2868   -0.1321   -0.7243 N.3     1  UNL1       -0.2980
      3 N          -1.9497    0.4043    1.0082 N.pl3   1  UNL1       -0.3304
      4 N          -2.2053    3.1717    1.1418 N.am    1  UNL1       -0.3276
      5 C          -1.1867    1.2537    0.0933 C.3     1  UNL1        0.1107
      6 C           0.1925    1.5876    0.6811 C.3     1  UNL1       -0.0103
      7 C          -1.0134    0.5898   -1.2809 C.3     1  UNL1       -0.0103
      8 C           1.1580    0.3983    0.6395 C.3     1  UNL1        0.0016
      9 C          -0.0117   -0.5691   -1.2536 C.3     1  UNL1        0.0016
     10 C          -1.9928    2.5144   -0.0469 C.2     1  UNL1        0.2340
     11 C           2.2499   -1.2326   -0.7570 C.3     1  UNL1        0.0240
     12 C          -2.9100   -0.4977    0.5900 C.ar    1  UNL1        0.0279
     13 C           3.6176   -0.7947   -0.3047 C.ar    1  UNL1       -0.0334
     14 C          -2.7807   -1.8739    0.8640 C.ar    1  UNL1       -0.0408
     15 C          -4.0476   -0.0687   -0.1222 C.ar    1  UNL1       -0.0408
     16 C           4.5243   -0.3124   -1.2384 C.ar    1  UNL1       -0.0573
     17 C           3.9526   -0.8798    1.0393 C.ar    1  UNL1       -0.0573
     18 C          -3.7499   -2.7843    0.4429 C.ar    1  UNL1       -0.0600
     19 C          -5.0170   -0.9790   -0.5432 C.ar    1  UNL1       -0.0600
     20 C           5.7916    0.0929   -0.8194 C.ar    1  UNL1       -0.0615
     21 C           5.2199   -0.4744    1.4584 C.ar    1  UNL1       -0.0615
     22 C          -4.8680   -2.3369   -0.2608 C.ar    1  UNL1       -0.0616
     23 C           6.1393    0.0118    0.5289 C.ar    1  UNL1       -0.0617
     24 H           0.1133    1.9250    1.7225 H       1  UNL1        0.0303
     25 H           0.6370    2.4239    0.1228 H       1  UNL1        0.0303
     26 H          -0.6224    1.3357   -1.9898 H       1  UNL1        0.0303
     27 H          -1.9525    0.2514   -1.7301 H       1  UNL1        0.0303
     28 H           2.1019    0.8077    1.0080 H       1  UNL1        0.0427
     29 H           0.8264   -0.3789    1.3400 H       1  UNL1        0.0427
     30 H          -0.4055   -1.4105   -0.6735 H       1  UNL1        0.0427
     31 H           0.1155   -0.9250   -2.2836 H       1  UNL1        0.0427
     32 H          -1.4581    0.1285    1.8542 H       1  UNL1        0.1471
     33 H           2.3335   -1.6258   -1.7792 H       1  UNL1        0.0476
     34 H           1.9121   -2.0787   -0.1420 H       1  UNL1        0.0476
     35 H          -2.7284    4.0406    1.1682 H       1  UNL1        0.1450
     36 H          -1.8905    2.8064    2.0345 H       1  UNL1        0.1450
     37 H          -1.9146   -2.2400    1.4115 H       1  UNL1        0.0636
     38 H          -4.2034    0.9832   -0.3435 H       1  UNL1        0.0636
     39 H           4.2632   -0.2431   -2.2907 H       1  UNL1        0.0621
     40 H           3.2537   -1.2714    1.7731 H       1  UNL1        0.0621
     41 H          -3.6340   -3.8415    0.6627 H       1  UNL1        0.0618
     42 H          -5.8898   -0.6305   -1.0877 H       1  UNL1        0.0618
     43 H           6.5074    0.4719   -1.5430 H       1  UNL1        0.0618
     44 H           5.4921   -0.5408    2.5077 H       1  UNL1        0.0618
     45 H          -5.6232   -3.0456   -0.5879 H       1  UNL1        0.0618
     46 H           7.1263    0.3266    0.8550 H       1  UNL1        0.0618
@<TRIPOS>BOND
     1     1    10    2
     2     2     8    1
     3     2     9    1
     4     2    11    1
     5     3     5    1
     6     3    12    1
     7     3    32    1
     8     4    10   am
     9     4    35    1
    10     4    36    1
    11     5     6    1
    12     5     7    1
    13     5    10    1
    14     6     8    1
    15     6    24    1
    16     6    25    1
    17     7     9    1
    18     7    26    1
    19     7    27    1
    20     8    28    1
    21     8    29    1
    22     9    30    1
    23     9    31    1
    24    11    13    1
    25    11    33    1
    26    11    34    1
    27    12    14   ar
    28    12    15   ar
    29    13    16   ar
    30    13    17   ar
    31    14    18   ar
    32    14    37    1
    33    15    19   ar
    34    15    38    1
    35    16    20   ar
    36    16    39    1
    37    17    21   ar
    38    17    40    1
    39    18    22   ar
    40    18    41    1
    41    19    22   ar
    42    19    42    1
    43    20    23   ar
    44    20    43    1
    45    21    23   ar
    46    21    44    1
    47    22    45    1
    48    23    46    1
