@<TRIPOS>MOLECULE
130431397
 44 47 0 0 0
SMALL
GASTEIGER

@<TRIPOS>ATOM
      1 CL         -5.7572    2.8623   -0.5671 Cl      1  UNL1       -0.0820
      2 CL         -7.6357    0.2451   -0.7776 Cl      1  UNL1       -0.0820
      3 CL          8.0449   -1.1751   -1.5670 Cl      1  UNL1       -0.0835
      4 O          -0.9504   -2.7203    0.4715 O.2     1  UNL1       -0.2465
      5 N           2.0780    0.6789    0.8495 N.3     1  UNL1       -0.2980
      6 N          -1.9204   -0.5641    0.2196 N.ar    1  UNL1       -0.2890
      7 N          -3.2568   -2.3867    0.0691 N.ar    1  UNL1       -0.3059
      8 C          -0.7856    0.3114    0.3749 C.3     1  UNL1        0.0417
      9 C           0.2616    0.0526   -0.7087 C.3     1  UNL1       -0.0191
     10 C          -0.1612    0.1529    1.7609 C.3     1  UNL1       -0.0191
     11 C           1.5118    0.9059   -0.4874 C.3     1  UNL1        0.0011
     12 C           1.1036    1.0019    1.9008 C.3     1  UNL1        0.0011
     13 C           3.3005    1.4625    1.0270 C.3     1  UNL1        0.0240
     14 C          -3.2281   -0.1236   -0.0187 C.ar    1  UNL1        0.0714
     15 C          -1.9076   -1.9831    0.2802 C.ar    1  UNL1        0.3278
     16 C          -4.0444   -1.2493   -0.1103 C.ar    1  UNL1        0.0685
     17 C           4.4882    0.8033    0.3775 C.ar    1  UNL1       -0.0333
     18 C          -3.7385    1.1505   -0.1564 C.ar    1  UNL1       -0.0163
     19 C          -5.3994   -1.1621   -0.3420 C.ar    1  UNL1       -0.0165
     20 C          -5.1126    1.2648   -0.3922 C.ar    1  UNL1        0.0613
     21 C           5.2695   -0.0959    1.1033 C.ar    1  UNL1       -0.0560
     22 C           4.8072    1.0914   -0.9495 C.ar    1  UNL1       -0.0560
     23 C          -5.9338    0.1213   -0.4842 C.ar    1  UNL1        0.0613
     24 C           6.3699   -0.7068    0.5022 C.ar    1  UNL1       -0.0431
     25 C           5.9076    0.4805   -1.5506 C.ar    1  UNL1       -0.0431
     26 C           6.6889   -0.4185   -0.8248 C.ar    1  UNL1        0.0410
     27 H          -1.1093    1.3532    0.2769 H       1  UNL1        0.0530
     28 H          -0.1623    0.2716   -1.6966 H       1  UNL1        0.0298
     29 H           0.5553   -1.0042   -0.7273 H       1  UNL1        0.0298
     30 H           0.0956   -0.8949    1.9596 H       1  UNL1        0.0298
     31 H          -0.8849    0.4439    2.5323 H       1  UNL1        0.0298
     32 H           1.2639    1.9651   -0.6367 H       1  UNL1        0.0427
     33 H           2.2188    0.6208   -1.2713 H       1  UNL1        0.0427
     34 H           1.5368    0.7987    2.8879 H       1  UNL1        0.0427
     35 H           0.8391    2.0673    1.8735 H       1  UNL1        0.0427
     36 H           3.5371    1.5645    2.0956 H       1  UNL1        0.0476
     37 H           3.1854    2.4939    0.6657 H       1  UNL1        0.0476
     38 H          -3.6013   -3.3386    0.0500 H       1  UNL1        0.1705
     39 H          -3.1124    2.0322   -0.0870 H       1  UNL1        0.0654
     40 H          -6.0146   -2.0527   -0.4095 H       1  UNL1        0.0654
     41 H           5.0306   -0.3311    2.1371 H       1  UNL1        0.0621
     42 H           4.2200    1.8027   -1.5239 H       1  UNL1        0.0621
     43 H           6.9692   -1.4062    1.0795 H       1  UNL1        0.0632
     44 H           6.1464    0.7171   -2.5843 H       1  UNL1        0.0632
@<TRIPOS>BOND
     1     1    20    1
     2     2    23    1
     3     3    26    1
     4     4    15    2
     5     5    11    1
     6     5    12    1
     7     5    13    1
     8     6     8    1
     9     6    14   ar
    10     6    15   ar
    11     7    15   ar
    12     7    16   ar
    13     7    38    1
    14     8     9    1
    15     8    10    1
    16     8    27    1
    17     9    11    1
    18     9    28    1
    19     9    29    1
    20    10    12    1
    21    10    30    1
    22    10    31    1
    23    11    32    1
    24    11    33    1
    25    12    34    1
    26    12    35    1
    27    13    17    1
    28    13    36    1
    29    13    37    1
    30    14    16   ar
    31    14    18   ar
    32    16    19   ar
    33    17    21   ar
    34    17    22   ar
    35    18    20   ar
    36    18    39    1
    37    19    23   ar
    38    19    40    1
    39    20    23   ar
    40    21    24   ar
    41    21    41    1
    42    22    25   ar
    43    22    42    1
    44    24    26   ar
    45    24    43    1
    46    25    26   ar
    47    25    44    1
