@<TRIPOS>MOLECULE
41693
 57 59 0 0 0
SMALL
GASTEIGER

@<TRIPOS>ATOM
      1 S          -6.6212   -0.8280   -1.2347 S.2     1  UNL1       -0.1016
      2 O           2.0411   -1.3101    2.3171 O.3     1  UNL1       -0.3808
      3 O           2.7555   -2.6027   -1.1427 O.2     1  UNL1       -0.2752
      4 N          -1.8189    0.1250    0.0552 N.3     1  UNL1       -0.3018
      5 N           2.3449   -0.4328   -0.3073 N.am    1  UNL1       -0.2630
      6 C           1.0231   -0.6886    0.2441 C.3     1  UNL1        0.0677
      7 C           0.4710    0.6144    0.8544 C.3     1  UNL1       -0.0160
      8 C           0.0835   -1.1439   -0.8894 C.3     1  UNL1       -0.0160
      9 C          -1.0142    0.5244    1.2163 C.3     1  UNL1        0.0009
     10 C          -1.3889   -1.1766   -0.4705 C.3     1  UNL1        0.0009
     11 C           1.1627   -1.7816    1.3152 C.3     1  UNL1        0.0691
     12 C          -3.2395    0.0940    0.4022 C.3     1  UNL1        0.0034
     13 C           2.9081    0.9041   -0.1796 C.ar    1  UNL1        0.0370
     14 C           3.1092   -1.4342   -0.9654 C.2     1  UNL1        0.2201
     15 C          -4.1123    0.3111   -0.8355 C.3     1  UNL1       -0.0086
     16 C           4.4918   -0.9945   -1.4385 C.3     1  UNL1        0.0217
     17 C           2.6775    1.8557   -1.1732 C.ar    1  UNL1       -0.0402
     18 C           3.6774    1.2335    0.9364 C.ar    1  UNL1       -0.0402
     19 C          -5.5792    0.3033   -0.4823 C.ar    1  UNL1       -0.0090
     20 C           2.2256   -2.2691    3.3536 C.3     1  UNL1        0.0365
     21 C           5.2531   -2.1045   -2.1473 C.3     1  UNL1       -0.0570
     22 C           3.2164    3.1364   -1.0510 C.ar    1  UNL1       -0.0600
     23 C           4.2163    2.5143    1.0586 C.ar    1  UNL1       -0.0600
     24 C          -6.2514    1.1149    0.4050 C.ar    1  UNL1       -0.0515
     25 C           3.9857    3.4657    0.0649 C.ar    1  UNL1       -0.0616
     26 C          -7.6404    0.8035    0.4680 C.ar    1  UNL1       -0.0545
     27 C          -7.9768   -0.2338   -0.3735 C.ar    1  UNL1       -0.0241
     28 H           1.0184    0.9220    1.7534 H       1  UNL1        0.0299
     29 H           0.5223    1.4473    0.1437 H       1  UNL1        0.0299
     30 H           0.1866   -0.4651   -1.7480 H       1  UNL1        0.0299
     31 H           0.3528   -2.1399   -1.2584 H       1  UNL1        0.0299
     32 H          -1.1615   -0.1671    2.0552 H       1  UNL1        0.0427
     33 H          -1.3319    1.5163    1.5625 H       1  UNL1        0.0427
     34 H          -1.9718   -1.4444   -1.3586 H       1  UNL1        0.0427
     35 H          -1.5516   -1.9740    0.2655 H       1  UNL1        0.0427
     36 H           1.5425   -2.7234    0.9069 H       1  UNL1        0.0581
     37 H           0.1936   -2.0062    1.7744 H       1  UNL1        0.0581
     38 H          -3.5110   -0.8344    0.9228 H       1  UNL1        0.0430
     39 H          -3.4619    0.9074    1.1063 H       1  UNL1        0.0430
     40 H          -3.8747    1.2810   -1.2923 H       1  UNL1        0.0331
     41 H          -3.9058   -0.4501   -1.5963 H       1  UNL1        0.0331
     42 H           4.3889   -0.1586   -2.1373 H       1  UNL1        0.0356
     43 H           5.0839   -0.6736   -0.5758 H       1  UNL1        0.0356
     44 H           2.0807    1.6090   -2.0474 H       1  UNL1        0.0636
     45 H           3.8746    0.5017    1.7142 H       1  UNL1        0.0636
     46 H           2.9095   -1.8457    4.0940 H       1  UNL1        0.0523
     47 H           2.6683   -3.1857    2.9520 H       1  UNL1        0.0523
     48 H           1.2728   -2.4914    3.8435 H       1  UNL1        0.0523
     49 H           4.7070   -2.4549   -3.0294 H       1  UNL1        0.0234
     50 H           5.4073   -2.9619   -1.4838 H       1  UNL1        0.0234
     51 H           6.2340   -1.7450   -2.4733 H       1  UNL1        0.0234
     52 H           3.0372    3.8770   -1.8249 H       1  UNL1        0.0618
     53 H           4.8172    2.7701    1.9263 H       1  UNL1        0.0618
     54 H          -5.7771    1.8987    0.9817 H       1  UNL1        0.0626
     55 H           4.4059    4.4627    0.1597 H       1  UNL1        0.0618
     56 H          -8.3566    1.3151    1.0977 H       1  UNL1        0.0623
     57 H          -8.9537   -0.6711   -0.5240 H       1  UNL1        0.0693
@<TRIPOS>BOND
     1     1    19   ar
     2     1    27   ar
     3     2    11    1
     4     2    20    1
     5     3    14    2
     6     4     9    1
     7     4    10    1
     8     4    12    1
     9     5     6    1
    10     5    13    1
    11     5    14   am
    12     6     7    1
    13     6     8    1
    14     6    11    1
    15     7     9    1
    16     7    28    1
    17     7    29    1
    18     8    10    1
    19     8    30    1
    20     8    31    1
    21     9    32    1
    22     9    33    1
    23    10    34    1
    24    10    35    1
    25    11    36    1
    26    11    37    1
    27    12    15    1
    28    12    38    1
    29    12    39    1
    30    13    17   ar
    31    13    18   ar
    32    14    16    1
    33    15    19    1
    34    15    40    1
    35    15    41    1
    36    16    21    1
    37    16    42    1
    38    16    43    1
    39    17    22   ar
    40    17    44    1
    41    18    23   ar
    42    18    45    1
    43    19    24   ar
    44    20    46    1
    45    20    47    1
    46    20    48    1
    47    21    49    1
    48    21    50    1
    49    21    51    1
    50    22    25   ar
    51    22    52    1
    52    23    25   ar
    53    23    53    1
    54    24    26   ar
    55    24    54    1
    56    25    55    1
    57    26    27   ar
    58    26    56    1
    59    27    57    1
@<TRIPOS>MOLECULE
165365136
 57 59 0 0 0
SMALL
GASTEIGER

@<TRIPOS>ATOM
      1 S           6.5614    0.9351    1.1614 S.2     1  UNL1       -0.1016
      2 O          -2.0216    1.1953   -2.4028 O.3     1  UNL1       -0.3808
      3 O          -2.6569    2.6358    1.1622 O.2     1  UNL1       -0.2752
      4 N           1.7949   -0.1762   -0.0725 N.3     1  UNL1       -0.3018
      5 N          -2.3589    0.4675    0.2732 N.am    1  UNL1       -0.2630
      6 C          -1.0325    0.6711   -0.2901 C.3     1  UNL1        0.0677
      7 C          -0.5091   -0.6725   -0.8316 C.3     1  UNL1       -0.0160
      8 C          -0.0830    1.1701    0.8168 C.3     1  UNL1       -0.0160
      9 C           0.9762   -0.6241   -1.2060 C.3     1  UNL1        0.0009
     10 C           1.3884    1.1575    0.3878 C.3     1  UNL1        0.0009
     11 C          -1.1505    1.7108   -1.4171 C.3     1  UNL1        0.0691
     12 C           3.2133   -0.1852   -0.4292 C.3     1  UNL1        0.0034
     13 C          -2.9123   -0.8783    0.1978 C.ar    1  UNL1        0.0370
     14 C          -3.0671    1.4896    0.9633 C.2     1  UNL1        0.2201
     15 C           4.0749   -0.2714    0.8303 C.3     1  UNL1       -0.0086
     16 C          -4.4635    1.1046    1.4430 C.3     1  UNL1        0.0217
     17 C          -3.7505   -1.2297   -0.8603 C.ar    1  UNL1       -0.0402
     18 C          -2.6043   -1.8149    1.1844 C.ar    1  UNL1       -0.0402
     19 C           5.5453   -0.2718    0.4958 C.ar    1  UNL1       -0.0090
     20 C          -2.1877    2.1008   -3.4895 C.3     1  UNL1        0.0365
     21 C          -5.1720    2.2395    2.1670 C.3     1  UNL1       -0.0570
     22 C          -4.2807   -2.5179   -0.9318 C.ar    1  UNL1       -0.0600
     23 C          -3.1345   -3.1031    1.1129 C.ar    1  UNL1       -0.0600
     24 C           6.2408   -1.1462   -0.3101 C.ar    1  UNL1       -0.0515
     25 C          -3.9727   -3.4546    0.0548 C.ar    1  UNL1       -0.0616
     26 C           7.6260   -0.8212   -0.3817 C.ar    1  UNL1       -0.0545
     27 C           7.9367    0.2893    0.3718 C.ar    1  UNL1       -0.0241
     28 H          -1.0657   -1.0226   -1.7093 H       1  UNL1        0.0299
     29 H          -0.5482   -1.4662   -0.0792 H       1  UNL1        0.0299
     30 H          -0.1924    0.5405    1.7111 H       1  UNL1        0.0299
     31 H          -0.3253    2.1909    1.1305 H       1  UNL1        0.0299
     32 H           1.1278    0.0202   -2.0810 H       1  UNL1        0.0427
     33 H           1.2781   -1.6370   -1.5019 H       1  UNL1        0.0427
     34 H           1.9736    1.4662    1.2601 H       1  UNL1        0.0427
     35 H           1.5603    1.9132   -0.3889 H       1  UNL1        0.0427
     36 H          -0.1763    1.9124   -1.8752 H       1  UNL1        0.0581
     37 H          -1.5386    2.6678   -1.0513 H       1  UNL1        0.0581
     38 H           3.4330   -1.0686   -1.0438 H       1  UNL1        0.0430
     39 H           3.4842    0.6863   -1.0403 H       1  UNL1        0.0430
     40 H           3.8567    0.5513    1.5195 H       1  UNL1        0.0331
     41 H           3.8469   -1.1986    1.3730 H       1  UNL1        0.0331
     42 H          -5.0714    0.8154    0.5799 H       1  UNL1        0.0356
     43 H          -4.3896    0.2558    2.1301 H       1  UNL1        0.0356
     44 H          -4.0044   -0.5085   -1.6320 H       1  UNL1        0.0636
     45 H          -1.9578   -1.5505    2.0173 H       1  UNL1        0.0636
     46 H          -2.8684    1.6455   -4.2136 H       1  UNL1        0.0523
     47 H          -2.6255    3.0408   -3.1403 H       1  UNL1        0.0523
     48 H          -1.2283    2.2891   -3.9807 H       1  UNL1        0.0523
     49 H          -5.2920    3.1095    1.5130 H       1  UNL1        0.0234
     50 H          -6.1659    1.9196    2.4949 H       1  UNL1        0.0234
     51 H          -4.6067    2.5566    3.0496 H       1  UNL1        0.0234
     52 H          -4.9346   -2.7911   -1.7548 H       1  UNL1        0.0618
     53 H          -2.8959   -3.8319    1.8819 H       1  UNL1        0.0618
     54 H           5.7850   -1.9833   -0.8234 H       1  UNL1        0.0626
     55 H          -4.3860   -4.4574   -0.0005 H       1  UNL1        0.0618
     56 H           8.3578   -1.3742   -0.9560 H       1  UNL1        0.0623
     57 H           8.9055    0.7521    0.4966 H       1  UNL1        0.0693
@<TRIPOS>BOND
     1     1    19   ar
     2     1    27   ar
     3     2    11    1
     4     2    20    1
     5     3    14    2
     6     4     9    1
     7     4    10    1
     8     4    12    1
     9     5     6    1
    10     5    13    1
    11     5    14   am
    12     6     7    1
    13     6     8    1
    14     6    11    1
    15     7     9    1
    16     7    28    1
    17     7    29    1
    18     8    10    1
    19     8    30    1
    20     8    31    1
    21     9    32    1
    22     9    33    1
    23    10    34    1
    24    10    35    1
    25    11    36    1
    26    11    37    1
    27    12    15    1
    28    12    38    1
    29    12    39    1
    30    13    17   ar
    31    13    18   ar
    32    14    16    1
    33    15    19    1
    34    15    40    1
    35    15    41    1
    36    16    21    1
    37    16    42    1
    38    16    43    1
    39    17    22   ar
    40    17    44    1
    41    18    23   ar
    42    18    45    1
    43    19    24   ar
    44    20    46    1
    45    20    47    1
    46    20    48    1
    47    21    49    1
    48    21    50    1
    49    21    51    1
    50    22    25   ar
    51    22    52    1
    52    23    25   ar
    53    23    53    1
    54    24    26   ar
    55    24    54    1
    56    25    55    1
    57    26    27   ar
    58    26    56    1
    59    27    57    1
@<TRIPOS>MOLECULE
19772622
 58 60 0 0 0
SMALL
GASTEIGER

@<TRIPOS>ATOM
      1 S          -4.1023    1.8843    0.6190 S.2     1  UNL1       -0.0990
      2 O           2.3907   -2.0900    1.5814 O.3     1  UNL1       -0.3808
      3 O          -5.4538   -1.5309    1.0807 O.3     1  UNL1       -0.3854
      4 O           3.1220   -1.5659   -2.0712 O.2     1  UNL1       -0.2752
      5 N          -1.9355   -1.2400   -0.0422 N.3     1  UNL1       -0.2994
      6 N           2.1287   -0.1863   -0.4326 N.am    1  UNL1       -0.2630
      7 C           1.0212   -1.0654   -0.0902 C.3     1  UNL1        0.0677
      8 C           0.1650   -1.3110   -1.3478 C.3     1  UNL1       -0.0160
      9 C           0.1480   -0.3822    0.9802 C.3     1  UNL1       -0.0160
     10 C          -1.1691   -1.9966   -1.0400 C.3     1  UNL1        0.0010
     11 C          -1.1858   -1.0979    1.2119 C.3     1  UNL1        0.0010
     12 C           1.6109   -2.3819    0.4394 C.3     1  UNL1        0.0691
     13 C          -3.2286   -1.8780    0.2029 C.3     1  UNL1        0.0296
     14 C           2.2461    1.0904    0.2579 C.ar    1  UNL1        0.0370
     15 C           3.1008   -0.5224   -1.4135 C.2     1  UNL1        0.2201
     16 C          -4.1955   -0.8915    0.8648 C.3     1  UNL1        0.0988
     17 C           4.2149    0.5024   -1.6063 C.3     1  UNL1        0.0217
     18 C           1.6237    2.2249   -0.2632 C.ar    1  UNL1       -0.0402
     19 C           2.9802    1.1790    1.4408 C.ar    1  UNL1       -0.0402
     20 C          -4.4390    0.3246   -0.0027 C.ar    1  UNL1        0.0193
     21 C           2.9765   -3.2633    2.1367 C.3     1  UNL1        0.0365
     22 C           5.2136    0.0929   -2.6782 C.3     1  UNL1       -0.0570
     23 C           1.7357    3.4478    0.3983 C.ar    1  UNL1       -0.0600
     24 C           3.0921    2.4020    2.1022 C.ar    1  UNL1       -0.0600
     25 C          -4.9194    0.3750   -1.2928 C.ar    1  UNL1       -0.0490
     26 C           2.4698    3.5364    1.5810 C.ar    1  UNL1       -0.0616
     27 C          -5.0120    1.7117   -1.7773 C.ar    1  UNL1       -0.0544
     28 C          -4.5991    2.6319   -0.8392 C.ar    1  UNL1       -0.0240
     29 H          -0.0426   -0.3523   -1.8443 H       1  UNL1        0.0299
     30 H           0.6981   -1.9228   -2.0840 H       1  UNL1        0.0299
     31 H           0.6584   -0.2991    1.9472 H       1  UNL1        0.0299
     32 H          -0.1421    0.6312    0.6793 H       1  UNL1        0.0299
     33 H          -1.7378   -2.0517   -1.9767 H       1  UNL1        0.0427
     34 H          -1.0002   -3.0286   -0.7083 H       1  UNL1        0.0427
     35 H          -1.0121   -2.0743    1.6814 H       1  UNL1        0.0427
     36 H          -1.7416   -0.4958    1.9379 H       1  UNL1        0.0427
     37 H           2.2273   -2.8952   -0.3052 H       1  UNL1        0.0581
     38 H           0.8164   -3.0803    0.7248 H       1  UNL1        0.0581
     39 H          -3.1278   -2.7853    0.8140 H       1  UNL1        0.0455
     40 H          -3.6765   -2.2192   -0.7409 H       1  UNL1        0.0455
     41 H          -3.8429   -0.5945    1.8577 H       1  UNL1        0.0662
     42 H           3.7799    1.4621   -1.9017 H       1  UNL1        0.0356
     43 H           4.7589    0.6265   -0.6648 H       1  UNL1        0.0356
     44 H           1.0503    2.1671   -1.1848 H       1  UNL1        0.0636
     45 H           3.4790    0.3077    1.8548 H       1  UNL1        0.0636
     46 H           3.5617   -2.9720    3.0130 H       1  UNL1        0.0523
     47 H           3.6448   -3.7371    1.4112 H       1  UNL1        0.0523
     48 H           2.1997   -3.9665    2.4521 H       1  UNL1        0.0523
     49 H          -5.2941   -2.3102    1.6401 H       1  UNL1        0.2103
     50 H           4.7205   -0.0334   -3.6477 H       1  UNL1        0.0234
     51 H           5.7003   -0.8539   -2.4217 H       1  UNL1        0.0234
     52 H           5.9899    0.8567   -2.7868 H       1  UNL1        0.0234
     53 H           1.2513    4.3311   -0.0077 H       1  UNL1        0.0618
     54 H           3.6656    2.4715    3.0219 H       1  UNL1        0.0618
     55 H          -5.1952   -0.5005   -1.8667 H       1  UNL1        0.0626
     56 H           2.5574    4.4887    2.0956 H       1  UNL1        0.0618
     57 H          -5.3640    1.9844   -2.7637 H       1  UNL1        0.0623
     58 H          -4.5653    3.7075   -0.9403 H       1  UNL1        0.0693
@<TRIPOS>BOND
     1     1    20   ar
     2     1    28   ar
     3     2    12    1
     4     2    21    1
     5     3    16    1
     6     3    49    1
     7     4    15    2
     8     5    10    1
     9     5    11    1
    10     5    13    1
    11     6     7    1
    12     6    14    1
    13     6    15   am
    14     7     8    1
    15     7     9    1
    16     7    12    1
    17     8    10    1
    18     8    29    1
    19     8    30    1
    20     9    11    1
    21     9    31    1
    22     9    32    1
    23    10    33    1
    24    10    34    1
    25    11    35    1
    26    11    36    1
    27    12    37    1
    28    12    38    1
    29    13    16    1
    30    13    39    1
    31    13    40    1
    32    14    18   ar
    33    14    19   ar
    34    15    17    1
    35    16    20    1
    36    16    41    1
    37    17    22    1
    38    17    42    1
    39    17    43    1
    40    18    23   ar
    41    18    44    1
    42    19    24   ar
    43    19    45    1
    44    20    25   ar
    45    21    46    1
    46    21    47    1
    47    21    48    1
    48    22    50    1
    49    22    51    1
    50    22    52    1
    51    23    26   ar
    52    23    53    1
    53    24    26   ar
    54    24    54    1
    55    25    27   ar
    56    25    55    1
    57    26    56    1
    58    27    28   ar
    59    27    57    1
    60    28    58    1
@<TRIPOS>MOLECULE
10881633
 46 48 0 0 0
SMALL
GASTEIGER

@<TRIPOS>ATOM
      1 S          -6.0624    0.9245    0.4333 S.2     1  UNL1       -0.1016
      2 O           2.0109    3.1889   -0.4825 O.3     1  UNL1       -0.3929
      3 N          -1.1724   -0.2407    0.1044 N.3     1  UNL1       -0.3018
      4 N           2.8289    0.8645    0.7752 N.pl3   1  UNL1       -0.3360
      5 C           1.5483    0.9146    0.0874 C.3     1  UNL1        0.0574
      6 C           0.4633    1.3284    1.0975 C.3     1  UNL1       -0.0167
      7 C           1.2255   -0.4893   -0.4541 C.3     1  UNL1       -0.0167
      8 C          -0.9557    1.1405    0.5533 C.3     1  UNL1        0.0009
      9 C          -0.2188   -0.6170   -0.9468 C.3     1  UNL1        0.0009
     10 C           1.6760    1.9384   -1.0492 C.3     1  UNL1        0.0654
     11 C          -2.5470   -0.4180   -0.3632 C.3     1  UNL1        0.0034
     12 C          -3.5484   -0.1634    0.7651 C.3     1  UNL1       -0.0086
     13 C           3.8512    0.0126    0.4120 C.ar    1  UNL1        0.0276
     14 C          -4.9681   -0.3668    0.2968 C.ar    1  UNL1       -0.0090
     15 C           4.3577   -0.9448    1.3159 C.ar    1  UNL1       -0.0408
     16 C           4.4248    0.0704   -0.8756 C.ar    1  UNL1       -0.0408
     17 C          -5.5091   -1.4921   -0.2409 C.ar    1  UNL1       -0.0515
     18 C           5.3919   -1.8058    0.9487 C.ar    1  UNL1       -0.0600
     19 C           5.4590   -0.7907   -1.2426 C.ar    1  UNL1       -0.0600
     20 C           5.9425   -1.7288   -0.3304 C.ar    1  UNL1       -0.0616
     21 C          -6.8841   -1.2977   -0.5598 C.ar    1  UNL1       -0.0545
     22 C          -7.3140   -0.0277   -0.2444 C.ar    1  UNL1       -0.0241
     23 H           0.5966    2.3666    1.4259 H       1  UNL1        0.0299
     24 H           0.5628    0.7189    2.0080 H       1  UNL1        0.0299
     25 H           1.3791   -1.2440    0.3308 H       1  UNL1        0.0299
     26 H           1.8805   -0.7653   -1.2888 H       1  UNL1        0.0299
     27 H          -1.6069    1.4036    1.3906 H       1  UNL1        0.0427
     28 H          -1.1553    1.8583   -0.2518 H       1  UNL1        0.0427
     29 H          -0.3655   -0.0087   -1.8482 H       1  UNL1        0.0427
     30 H          -0.3836   -1.6622   -1.2369 H       1  UNL1        0.0427
     31 H           0.7226    2.0697   -1.5704 H       1  UNL1        0.0578
     32 H           2.3989    1.6910   -1.8238 H       1  UNL1        0.0578
     33 H           2.8051    1.0913    1.7659 H       1  UNL1        0.1467
     34 H          -2.7624    0.2410   -1.2156 H       1  UNL1        0.0430
     35 H          -2.6714   -1.4481   -0.7215 H       1  UNL1        0.0430
     36 H          -3.4679    0.8508    1.1660 H       1  UNL1        0.0331
     37 H          -3.3561   -0.8511    1.5992 H       1  UNL1        0.0331
     38 H           2.8722    3.0899   -0.0421 H       1  UNL1        0.2095
     39 H           3.9389   -1.0197    2.3172 H       1  UNL1        0.0636
     40 H           4.1238    0.8084   -1.6065 H       1  UNL1        0.0636
     41 H          -4.9707   -2.4169   -0.4029 H       1  UNL1        0.0626
     42 H           5.7685   -2.5362    1.6588 H       1  UNL1        0.0618
     43 H           5.8958   -0.7241   -2.2347 H       1  UNL1        0.0618
     44 H           6.7493   -2.3975   -0.6155 H       1  UNL1        0.0618
     45 H          -7.5256   -2.0516   -0.9973 H       1  UNL1        0.0623
     46 H          -8.3032    0.3866   -0.3792 H       1  UNL1        0.0693
@<TRIPOS>BOND
     1     1    14   ar
     2     1    22   ar
     3     2    10    1
     4     2    38    1
     5     3     8    1
     6     3     9    1
     7     3    11    1
     8     4     5    1
     9     4    13    1
    10     4    33    1
    11     5     6    1
    12     5     7    1
    13     5    10    1
    14     6     8    1
    15     6    23    1
    16     6    24    1
    17     7     9    1
    18     7    25    1
    19     7    26    1
    20     8    27    1
    21     8    28    1
    22     9    29    1
    23     9    30    1
    24    10    31    1
    25    10    32    1
    26    11    12    1
    27    11    34    1
    28    11    35    1
    29    12    14    1
    30    12    36    1
    31    12    37    1
    32    13    15   ar
    33    13    16   ar
    34    14    17   ar
    35    15    18   ar
    36    15    39    1
    37    16    19   ar
    38    16    40    1
    39    17    21   ar
    40    17    41    1
    41    18    20   ar
    42    18    42    1
    43    19    20   ar
    44    19    43    1
    45    20    44    1
    46    21    22   ar
    47    21    45    1
    48    22    46    1
@<TRIPOS>MOLECULE
14494472
 62 64 0 0 0
SMALL
GASTEIGER

@<TRIPOS>ATOM
      1 S          -6.8537   -0.3487   -1.3452 S.2     1  UNL1       -0.1016
      2 O           1.9311   -1.9086    0.3497 O.3     1  UNL1       -0.4625
      3 O           2.2975   -0.0446   -2.8972 O.2     1  UNL1       -0.2752
      4 O           1.8128   -4.0867   -0.4025 O.2     1  UNL1       -0.2509
      5 N          -2.1382    0.4378    0.2480 N.3     1  UNL1       -0.3018
      6 N           1.9692    0.6798   -0.6740 N.am    1  UNL1       -0.2620
      7 C           0.7096   -0.0077   -0.4343 C.3     1  UNL1        0.0785
      8 C           0.2195    0.3206    0.9894 C.3     1  UNL1       -0.0150
      9 C          -0.3380    0.4913   -1.4484 C.3     1  UNL1       -0.0150
     10 C          -1.2219   -0.1286    1.2454 C.3     1  UNL1        0.0010
     11 C          -1.7610    0.0363   -1.1128 C.3     1  UNL1        0.0010
     12 C           0.9575   -1.5156   -0.5965 C.3     1  UNL1        0.1142
     13 C          -3.5169    0.0428    0.5357 C.3     1  UNL1        0.0034
     14 C           2.5402    1.4847    0.3968 C.ar    1  UNL1        0.0370
     15 C           2.6653    0.5981   -1.9105 C.2     1  UNL1        0.2201
     16 C          -4.4949    0.7377   -0.4124 C.3     1  UNL1       -0.0086
     17 C           3.9929    1.3487   -1.9630 C.3     1  UNL1        0.0217
     18 C           3.3931    0.8713    1.2691 C.ar    1  UNL1       -0.0402
     19 C           2.1859    2.8019    0.4611 C.ar    1  UNL1       -0.0402
     20 C          -5.9225    0.3561   -0.1119 C.ar    1  UNL1       -0.0090
     21 C           2.2776   -3.2381    0.3460 C.2     1  UNL1        0.3069
     22 C           4.6811    1.2356   -3.3149 C.3     1  UNL1       -0.0570
     23 C           3.9394    1.6425    2.2950 C.ar    1  UNL1       -0.0600
     24 C           2.7324    3.5730    1.4869 C.ar    1  UNL1       -0.0600
     25 C           3.3219   -3.4913    1.4079 C.3     1  UNL1        0.0421
     26 C          -6.5911    0.5080    1.0626 C.ar    1  UNL1       -0.0515
     27 C           3.6090    2.9933    2.4038 C.ar    1  UNL1       -0.0616
     28 C          -7.9284    0.0277    0.9577 C.ar    1  UNL1       -0.0545
     29 C          -8.2039   -0.4655   -0.2986 C.ar    1  UNL1       -0.0241
     30 C           3.7347   -4.9516    1.4672 C.3     1  UNL1       -0.0552
     31 H           0.1961    1.4008    1.1727 H       1  UNL1        0.0299
     32 H           0.8522   -0.1261    1.7655 H       1  UNL1        0.0299
     33 H          -0.1045    0.1536   -2.4645 H       1  UNL1        0.0299
     34 H          -0.3216    1.5901   -1.4835 H       1  UNL1        0.0299
     35 H          -1.2813   -1.2240    1.2601 H       1  UNL1        0.0427
     36 H          -1.5095    0.2171    2.2465 H       1  UNL1        0.0427
     37 H          -2.3874    0.5166   -1.8685 H       1  UNL1        0.0427
     38 H          -1.8585   -1.0477   -1.2505 H       1  UNL1        0.0427
     39 H           0.0395   -2.0845   -0.4114 H       1  UNL1        0.0719
     40 H           1.2977   -1.7790   -1.6029 H       1  UNL1        0.0719
     41 H          -3.6374   -1.0474    0.4710 H       1  UNL1        0.0430
     42 H          -3.7612    0.3266    1.5675 H       1  UNL1        0.0430
     43 H          -4.2957    0.4945   -1.4597 H       1  UNL1        0.0331
     44 H          -4.3997    1.8273   -0.3161 H       1  UNL1        0.0331
     45 H           3.8205    2.4106   -1.7632 H       1  UNL1        0.0356
     46 H           4.6691    0.9428   -1.2043 H       1  UNL1        0.0356
     47 H           3.6663   -0.1739    1.1842 H       1  UNL1        0.0636
     48 H           1.5055    3.2545   -0.2528 H       1  UNL1        0.0636
     49 H           5.6239    1.7914   -3.3096 H       1  UNL1        0.0234
     50 H           4.0500    1.6409   -4.1127 H       1  UNL1        0.0234
     51 H           4.9023    0.1910   -3.5579 H       1  UNL1        0.0234
     52 H           4.6245    1.1919    3.0071 H       1  UNL1        0.0618
     53 H           2.4756    4.6248    1.5713 H       1  UNL1        0.0618
     54 H           4.1986   -2.8746    1.1841 H       1  UNL1        0.0375
     55 H           2.9096   -3.1906    2.3769 H       1  UNL1        0.0375
     56 H          -6.1676    0.9405    1.9599 H       1  UNL1        0.0626
     57 H           4.0352    3.5938    3.2021 H       1  UNL1        0.0618
     58 H          -8.6519    0.0441    1.7624 H       1  UNL1        0.0623
     59 H          -9.1338   -0.8887   -0.6520 H       1  UNL1        0.0693
     60 H           4.1568   -5.2800    0.5116 H       1  UNL1        0.0235
     61 H           4.4894   -5.1030    2.2450 H       1  UNL1        0.0235
     62 H           2.8768   -5.5938    1.6925 H       1  UNL1        0.0235
@<TRIPOS>BOND
     1     1    20   ar
     2     1    29   ar
     3     2    12    1
     4     2    21    1
     5     3    15    2
     6     4    21    2
     7     5    10    1
     8     5    11    1
     9     5    13    1
    10     6     7    1
    11     6    14    1
    12     6    15   am
    13     7     8    1
    14     7     9    1
    15     7    12    1
    16     8    10    1
    17     8    31    1
    18     8    32    1
    19     9    11    1
    20     9    33    1
    21     9    34    1
    22    10    35    1
    23    10    36    1
    24    11    37    1
    25    11    38    1
    26    12    39    1
    27    12    40    1
    28    13    16    1
    29    13    41    1
    30    13    42    1
    31    14    18   ar
    32    14    19   ar
    33    15    17    1
    34    16    20    1
    35    16    43    1
    36    16    44    1
    37    17    22    1
    38    17    45    1
    39    17    46    1
    40    18    23   ar
    41    18    47    1
    42    19    24   ar
    43    19    48    1
    44    20    26   ar
    45    21    25    1
    46    22    49    1
    47    22    50    1
    48    22    51    1
    49    23    27   ar
    50    23    52    1
    51    24    27   ar
    52    24    53    1
    53    25    30    1
    54    25    54    1
    55    25    55    1
    56    26    28   ar
    57    26    56    1
    58    27    57    1
    59    28    29   ar
    60    28    58    1
    61    29    59    1
    62    30    60    1
    63    30    61    1
    64    30    62    1
@<TRIPOS>MOLECULE
14879884
 57 59 0 0 0
SMALL
GASTEIGER

@<TRIPOS>ATOM
      1 S          -8.0777   -0.3761   -0.4939 S.2     1  UNL1       -0.1048
      2 O           2.0376   -1.3250    2.3082 O.3     1  UNL1       -0.3808
      3 O           2.7736   -2.5893   -1.1576 O.2     1  UNL1       -0.2752
      4 N          -1.8275    0.0917    0.0436 N.3     1  UNL1       -0.3019
      5 N           2.3420   -0.4283   -0.3096 N.am    1  UNL1       -0.2630
      6 C           1.0207   -0.6989    0.2361 C.3     1  UNL1        0.0677
      7 C           0.4557    0.5954    0.8530 C.3     1  UNL1       -0.0160
      8 C           0.0885   -1.1549   -0.9032 C.3     1  UNL1       -0.0160
      9 C          -1.0298    0.4905    1.2097 C.3     1  UNL1        0.0009
     10 C          -1.3849   -1.2028   -0.4890 C.3     1  UNL1        0.0009
     11 C           1.1663   -1.7976    1.3006 C.3     1  UNL1        0.0691
     12 C          -3.2489    0.0464    0.3860 C.3     1  UNL1        0.0029
     13 C           2.8933    0.9124   -0.1716 C.ar    1  UNL1        0.0370
     14 C           3.1167   -1.4189   -0.9717 C.2     1  UNL1        0.2201
     15 C          -4.1212    0.2637   -0.8529 C.3     1  UNL1       -0.0144
     16 C           4.4970   -0.9645   -1.4377 C.3     1  UNL1        0.0217
     17 C           2.6576    1.8684   -1.1598 C.ar    1  UNL1       -0.0402
     18 C           3.6564    1.2412    0.9488 C.ar    1  UNL1       -0.0402
     19 C          -5.5851    0.2452   -0.5242 C.ar    1  UNL1       -0.0392
     20 C           2.2272   -2.2891    3.3391 C.3     1  UNL1        0.0365
     21 C           5.2698   -2.0634   -2.1512 C.3     1  UNL1       -0.0570
     22 C           3.1853    3.1528   -1.0278 C.ar    1  UNL1       -0.0600
     23 C           4.1840    2.5257    1.0809 C.ar    1  UNL1       -0.0600
     24 C          -6.1997    1.1227    0.4150 C.ar    1  UNL1       -0.0515
     25 C          -6.4923   -0.6220   -1.0923 C.ar    1  UNL1       -0.0211
     26 C           3.9484    3.4815    0.0926 C.ar    1  UNL1       -0.0616
     27 C          -7.5531    0.8931    0.5289 C.ar    1  UNL1       -0.0241
     28 H           0.9977    0.9019    1.7556 H       1  UNL1        0.0299
     29 H           0.5020    1.4333    0.1478 H       1  UNL1        0.0299
     30 H           0.1884   -0.4697   -1.7571 H       1  UNL1        0.0299
     31 H           0.3673   -2.1462   -1.2777 H       1  UNL1        0.0299
     32 H          -1.1737   -0.2076    2.0438 H       1  UNL1        0.0427
     33 H          -1.3569    1.4774    1.5614 H       1  UNL1        0.0427
     34 H          -1.9629   -1.4694   -1.3807 H       1  UNL1        0.0427
     35 H          -1.5431   -2.0063    0.2411 H       1  UNL1        0.0427
     36 H           1.5554   -2.7335    0.8875 H       1  UNL1        0.0581
     37 H           0.1979   -2.0333    1.7553 H       1  UNL1        0.0581
     38 H          -3.5146   -0.8873    0.9000 H       1  UNL1        0.0430
     39 H          -3.4770    0.8529    1.0956 H       1  UNL1        0.0430
     40 H          -3.8806    1.2313   -1.3128 H       1  UNL1        0.0326
     41 H          -3.9160   -0.5013   -1.6109 H       1  UNL1        0.0326
     42 H           4.3891   -0.1251   -2.1314 H       1  UNL1        0.0356
     43 H           5.0838   -0.6442   -0.5712 H       1  UNL1        0.0356
     44 H           2.0656    1.6222   -2.0374 H       1  UNL1        0.0636
     45 H           3.8575    0.5061    1.7225 H       1  UNL1        0.0636
     46 H           2.9053   -1.8646    4.0843 H       1  UNL1        0.0523
     47 H           2.6789   -3.1993    2.9331 H       1  UNL1        0.0523
     48 H           1.2748   -2.5226    3.8247 H       1  UNL1        0.0523
     49 H           4.7294   -2.4128   -3.0372 H       1  UNL1        0.0234
     50 H           5.4293   -2.9237   -1.4927 H       1  UNL1        0.0234
     51 H           6.2486   -1.6934   -2.4720 H       1  UNL1        0.0234
     52 H           3.0021    3.8968   -1.7975 H       1  UNL1        0.0618
     53 H           4.7801    2.7811    1.9521 H       1  UNL1        0.0618
     54 H          -5.6855    1.8903    0.9793 H       1  UNL1        0.0626
     55 H          -6.3060   -1.3903   -1.8300 H       1  UNL1        0.0696
     56 H           4.3597    4.4814    0.1951 H       1  UNL1        0.0618
     57 H          -8.2591    1.4110    1.1626 H       1  UNL1        0.0693
@<TRIPOS>BOND
     1     1    25   ar
     2     1    27   ar
     3     2    11    1
     4     2    20    1
     5     3    14    2
     6     4     9    1
     7     4    10    1
     8     4    12    1
     9     5     6    1
    10     5    13    1
    11     5    14   am
    12     6     7    1
    13     6     8    1
    14     6    11    1
    15     7     9    1
    16     7    28    1
    17     7    29    1
    18     8    10    1
    19     8    30    1
    20     8    31    1
    21     9    32    1
    22     9    33    1
    23    10    34    1
    24    10    35    1
    25    11    36    1
    26    11    37    1
    27    12    15    1
    28    12    38    1
    29    12    39    1
    30    13    17   ar
    31    13    18   ar
    32    14    16    1
    33    15    19    1
    34    15    40    1
    35    15    41    1
    36    16    21    1
    37    16    42    1
    38    16    43    1
    39    17    22   ar
    40    17    44    1
    41    18    23   ar
    42    18    45    1
    43    19    24   ar
    44    19    25   ar
    45    20    46    1
    46    20    47    1
    47    20    48    1
    48    21    49    1
    49    21    50    1
    50    21    51    1
    51    22    26   ar
    52    22    52    1
    53    23    26   ar
    54    23    53    1
    55    24    27   ar
    56    24    54    1
    57    25    55    1
    58    26    56    1
    59    27    57    1
@<TRIPOS>MOLECULE
15295498
 49 51 0 0 0
SMALL
GASTEIGER

@<TRIPOS>ATOM
      1 S           5.7649    0.1319    1.6036 S.2     1  UNL1       -0.1016
      2 O          -3.1729    2.5912    0.4304 O.3     1  UNL1       -0.3809
      3 N           1.3349    0.4741   -0.7707 N.3     1  UNL1       -0.3018
      4 N          -1.9889    0.0949    0.7068 N.pl3   1  UNL1       -0.3360
      5 C          -1.5292    1.0253   -0.3133 C.3     1  UNL1        0.0576
      6 C          -0.4028    1.8954    0.2681 C.3     1  UNL1       -0.0167
      7 C          -1.0116    0.2436   -1.5334 C.3     1  UNL1       -0.0167
      8 C           0.8975    1.1120    0.4772 C.3     1  UNL1        0.0009
      9 C           0.3219   -0.4651   -1.2677 C.3     1  UNL1        0.0009
     10 C          -2.7223    1.9007   -0.7173 C.3     1  UNL1        0.0685
     11 C           2.6137   -0.2090   -0.5756 C.3     1  UNL1        0.0034
     12 C           3.6920    0.7681   -0.1030 C.3     1  UNL1       -0.0086
     13 C          -3.0029   -0.8170    0.4989 C.ar    1  UNL1        0.0276
     14 C           5.0201    0.0757    0.0785 C.ar    1  UNL1       -0.0090
     15 C          -4.3474   -0.4855    0.7684 C.ar    1  UNL1       -0.0408
     16 C          -2.7296   -2.1119    0.0104 C.ar    1  UNL1       -0.0408
     17 C          -4.2856    3.4315    0.1403 C.3     1  UNL1        0.0365
     18 C          -5.3727   -1.4077    0.5585 C.ar    1  UNL1       -0.0600
     19 C          -3.7549   -3.0340   -0.1996 C.ar    1  UNL1       -0.0600
     20 C           5.7283   -0.6143   -0.8546 C.ar    1  UNL1       -0.0515
     21 C          -5.0764   -2.6819    0.0744 C.ar    1  UNL1       -0.0616
     22 C           6.9392   -1.1251   -0.3045 C.ar    1  UNL1       -0.0545
     23 C           7.0848   -0.7926    1.0243 C.ar    1  UNL1       -0.0241
     24 H          -0.7007    2.3395    1.2268 H       1  UNL1        0.0299
     25 H          -0.1983    2.7330   -0.4132 H       1  UNL1        0.0299
     26 H          -0.8483    0.9533   -2.3577 H       1  UNL1        0.0299
     27 H          -1.7449   -0.4737   -1.9169 H       1  UNL1        0.0299
     28 H           0.7721    0.3740    1.2799 H       1  UNL1        0.0427
     29 H           1.6070    1.8651    0.8278 H       1  UNL1        0.0427
     30 H           0.1847   -1.2892   -0.5590 H       1  UNL1        0.0427
     31 H           0.6611   -0.9074   -2.2126 H       1  UNL1        0.0427
     32 H          -2.4061    2.6327   -1.4720 H       1  UNL1        0.0581
     33 H          -3.5371    1.3158   -1.1600 H       1  UNL1        0.0581
     34 H          -2.0203    0.4987    1.6409 H       1  UNL1        0.1467
     35 H           2.5148   -1.0319    0.1458 H       1  UNL1        0.0430
     36 H           2.9261   -0.6573   -1.5274 H       1  UNL1        0.0430
     37 H           3.4345    1.2385    0.8497 H       1  UNL1        0.0331
     38 H           3.8171    1.5753   -0.8366 H       1  UNL1        0.0331
     39 H          -4.6038    0.4928    1.1662 H       1  UNL1        0.0636
     40 H          -1.7087   -2.4204   -0.1942 H       1  UNL1        0.0636
     41 H          -4.0085    4.1915   -0.5964 H       1  UNL1        0.0523
     42 H          -4.5869    3.9324    1.0640 H       1  UNL1        0.0523
     43 H          -5.1283    2.8381   -0.2273 H       1  UNL1        0.0523
     44 H           5.4183   -0.7553   -1.8820 H       1  UNL1        0.0626
     45 H          -6.4013   -1.1355    0.7767 H       1  UNL1        0.0618
     46 H          -3.5241   -4.0277   -0.5723 H       1  UNL1        0.0618
     47 H          -5.8745   -3.4005   -0.0871 H       1  UNL1        0.0618
     48 H           7.6672   -1.7061   -0.8557 H       1  UNL1        0.0623
     49 H           7.9032   -1.0481    1.6826 H       1  UNL1        0.0693
@<TRIPOS>BOND
     1     1    14   ar
     2     1    23   ar
     3     2    10    1
     4     2    17    1
     5     3     8    1
     6     3     9    1
     7     3    11    1
     8     4     5    1
     9     4    13    1
    10     4    34    1
    11     5     6    1
    12     5     7    1
    13     5    10    1
    14     6     8    1
    15     6    24    1
    16     6    25    1
    17     7     9    1
    18     7    26    1
    19     7    27    1
    20     8    28    1
    21     8    29    1
    22     9    30    1
    23     9    31    1
    24    10    32    1
    25    10    33    1
    26    11    12    1
    27    11    35    1
    28    11    36    1
    29    12    14    1
    30    12    37    1
    31    12    38    1
    32    13    15   ar
    33    13    16   ar
    34    14    20   ar
    35    15    18   ar
    36    15    39    1
    37    16    19   ar
    38    16    40    1
    39    17    41    1
    40    17    42    1
    41    17    43    1
    42    18    21   ar
    43    18    45    1
    44    19    21   ar
    45    19    46    1
    46    20    22   ar
    47    20    44    1
    48    21    47    1
    49    22    23   ar
    50    22    48    1
    51    23    49    1
@<TRIPOS>MOLECULE
155928981
 58 60 0 0 0
SMALL
GASTEIGER

@<TRIPOS>ATOM
      1 S          -6.2250   -0.0293    0.0679 S.2     1  UNL1       -0.1014
      2 O          -2.3534    3.0875    0.9962 O.co2   1  UNL1       -0.7753
      3 O           3.1153    2.0736    0.8667 O.3     1  UNL1       -0.3808
      4 O           2.5362    0.6288   -2.7026 O.2     1  UNL1       -0.2752
      5 N          -1.5778    2.0052    0.6284 N.3     1  UNL1        0.2175
      6 N           1.9921   -0.0806   -0.5158 N.am    1  UNL1       -0.2627
      7 C           1.1886    1.0726   -0.1336 C.3     1  UNL1        0.0750
      8 C           0.0627    1.2641   -1.1693 C.3     1  UNL1        0.0116
      9 C           0.5782    0.8092    1.2561 C.3     1  UNL1        0.0116
     10 C          -0.9797    2.2893   -0.7324 C.3     1  UNL1       -0.0306
     11 C          -0.4731    1.8427    1.6499 C.3     1  UNL1       -0.0306
     12 C           2.1141    2.3011   -0.1033 C.3     1  UNL1        0.0694
     13 C          -2.4713    0.7972    0.5920 C.3     1  UNL1       -0.0281
     14 C          -3.6749    1.0208   -0.3129 C.3     1  UNL1        0.0188
     15 C           2.0656   -1.1824    0.4346 C.ar    1  UNL1        0.0370
     16 C           2.6065   -0.2012   -1.7928 C.2     1  UNL1        0.2201
     17 C          -4.5836   -0.1806   -0.3957 C.ar    1  UNL1       -0.0052
     18 C           3.4478   -1.4582   -1.9946 C.3     1  UNL1        0.0217
     19 C           3.1248   -1.2540    1.3393 C.ar    1  UNL1       -0.0402
     20 C           1.0768   -2.1663    0.4391 C.ar    1  UNL1       -0.0402
     21 C           4.0213    3.1686    0.9612 C.3     1  UNL1        0.0365
     22 C           4.0832   -1.5271   -3.3751 C.3     1  UNL1       -0.0570
     23 C          -4.2799   -1.4580   -0.8128 C.ar    1  UNL1       -0.0514
     24 C           3.1953   -2.3094    2.2487 C.ar    1  UNL1       -0.0600
     25 C           1.1473   -3.2216    1.3485 C.ar    1  UNL1       -0.0600
     26 C           2.2065   -3.2932    2.2532 C.ar    1  UNL1       -0.0616
     27 C          -5.4097   -2.3236   -0.7513 C.ar    1  UNL1       -0.0545
     28 C          -6.5339   -1.6752   -0.2893 C.ar    1  UNL1       -0.0241
     29 H          -0.4308    0.3047   -1.3687 H       1  UNL1        0.0339
     30 H           0.4581    1.6016   -2.1331 H       1  UNL1        0.0339
     31 H           1.3344    0.7925    2.0503 H       1  UNL1        0.0339
     32 H           0.0417   -0.1398    1.3072 H       1  UNL1        0.0339
     33 H          -1.7811    2.4002   -1.4643 H       1  UNL1        0.0814
     34 H          -0.5217    3.2818   -0.6378 H       1  UNL1        0.0814
     35 H          -0.0279    2.8371    1.7715 H       1  UNL1        0.0814
     36 H          -0.9595    1.5782    2.5960 H       1  UNL1        0.0814
     37 H           1.5632    3.2085    0.1654 H       1  UNL1        0.0581
     38 H           2.5828    2.4861   -1.0759 H       1  UNL1        0.0581
     39 H          -2.7981    0.6257    1.6251 H       1  UNL1        0.0817
     40 H          -1.8767   -0.0613    0.2711 H       1  UNL1        0.0817
     41 H          -4.2435    1.9007    0.0110 H       1  UNL1        0.0370
     42 H          -3.3690    1.2222   -1.3443 H       1  UNL1        0.0370
     43 H           2.8153   -2.3422   -1.8663 H       1  UNL1        0.0356
     44 H           4.2473   -1.4777   -1.2472 H       1  UNL1        0.0356
     45 H           3.9053   -0.4984    1.3427 H       1  UNL1        0.0636
     46 H           0.2496   -2.1241   -0.2650 H       1  UNL1        0.0636
     47 H           4.7669    2.9311    1.7246 H       1  UNL1        0.0523
     48 H           4.5341    3.3239    0.0071 H       1  UNL1        0.0523
     49 H           3.4919    4.0786    1.2594 H       1  UNL1        0.0523
     50 H           4.7466   -0.6728   -3.5462 H       1  UNL1        0.0234
     51 H           4.6735   -2.4430   -3.4768 H       1  UNL1        0.0234
     52 H           3.3198   -1.5236   -4.1601 H       1  UNL1        0.0234
     53 H          -3.2966   -1.7615   -1.1491 H       1  UNL1        0.0626
     54 H           4.0208   -2.3659    2.9521 H       1  UNL1        0.0618
     55 H           0.3779   -3.9882    1.3512 H       1  UNL1        0.0618
     56 H           2.2616   -4.1153    2.9608 H       1  UNL1        0.0618
     57 H          -5.3987   -3.3687   -1.0320 H       1  UNL1        0.0623
     58 H          -7.5217   -2.0894   -0.1446 H       1  UNL1        0.0693
@<TRIPOS>UNITY_ATOM_ATTR
2 1
charge -1
5 1
charge 1
@<TRIPOS>BOND
     1     1    17   ar
     2     1    28   ar
     3     2     5    1
     4     3    12    1
     5     3    21    1
     6     4    16    2
     7     5    10    1
     8     5    11    1
     9     5    13    1
    10     6     7    1
    11     6    15    1
    12     6    16   am
    13     7     8    1
    14     7     9    1
    15     7    12    1
    16     8    10    1
    17     8    29    1
    18     8    30    1
    19     9    11    1
    20     9    31    1
    21     9    32    1
    22    10    33    1
    23    10    34    1
    24    11    35    1
    25    11    36    1
    26    12    37    1
    27    12    38    1
    28    13    14    1
    29    13    39    1
    30    13    40    1
    31    14    17    1
    32    14    41    1
    33    14    42    1
    34    15    19   ar
    35    15    20   ar
    36    16    18    1
    37    17    23   ar
    38    18    22    1
    39    18    43    1
    40    18    44    1
    41    19    24   ar
    42    19    45    1
    43    20    25   ar
    44    20    46    1
    45    21    47    1
    46    21    48    1
    47    21    49    1
    48    22    50    1
    49    22    51    1
    50    22    52    1
    51    23    27   ar
    52    23    53    1
    53    24    26   ar
    54    24    54    1
    55    25    26   ar
    56    25    55    1
    57    26    56    1
    58    27    28   ar
    59    27    57    1
    60    28    58    1
@<TRIPOS>MOLECULE
156614134
 60 62 0 0 0
SMALL
GASTEIGER

@<TRIPOS>ATOM
      1 S           6.7188    1.2904    1.1304 S.2     1  UNL1       -0.1016
      2 O          -1.7183    0.6106   -2.7156 O.3     1  UNL1       -0.3808
      3 O          -2.5401    2.6264    0.5158 O.2     1  UNL1       -0.2752
      4 N           2.0411   -0.1928   -0.0514 N.3     1  UNL1       -0.3018
      5 N          -2.1406    0.3489    0.0335 N.am    1  UNL1       -0.2630
      6 C          -0.7995    0.4995   -0.5110 C.3     1  UNL1        0.0677
      7 C          -0.2146   -0.8979   -0.7899 C.3     1  UNL1       -0.0160
      8 C           0.0895    1.2184    0.5228 C.3     1  UNL1       -0.0160
      9 C           1.2824   -0.8612   -1.1159 C.3     1  UNL1        0.0009
     10 C           1.5767    1.1849    0.1532 C.3     1  UNL1        0.0009
     11 C          -0.9033    1.3217   -1.8066 C.3     1  UNL1        0.0691
     12 C           3.4723   -0.2120   -0.3522 C.3     1  UNL1        0.0034
     13 C          -2.6497   -1.0086    0.1768 C.ar    1  UNL1        0.0370
     14 C          -2.9072    1.4487    0.5082 C.2     1  UNL1        0.2203
     15 C           4.2849   -0.0455    0.9315 C.3     1  UNL1       -0.0086
     16 C          -4.3103    1.1013    1.0006 C.3     1  UNL1        0.0243
     17 C          -3.4332   -1.5701   -0.8315 C.ar    1  UNL1       -0.0402
     18 C          -2.3540   -1.7468    1.3228 C.ar    1  UNL1       -0.0402
     19 C           5.7669   -0.0504    0.6528 C.ar    1  UNL1       -0.0090
     20 C          -5.0817    2.3249    1.4969 C.3     1  UNL1       -0.0476
     21 C          -1.8678    1.3059   -3.9495 C.3     1  UNL1        0.0365
     22 C          -3.9210   -2.8695   -0.6937 C.ar    1  UNL1       -0.0600
     23 C          -2.8418   -3.0462    1.4606 C.ar    1  UNL1       -0.0600
     24 C          -3.6253   -3.6076    0.4523 C.ar    1  UNL1       -0.0616
     25 C           6.5201   -1.0260    0.0374 C.ar    1  UNL1       -0.0515
     26 C          -6.4844    1.9532    1.9504 C.3     1  UNL1       -0.0648
     27 C           7.8967   -0.6680   -0.0428 C.ar    1  UNL1       -0.0545
     28 C           8.1434    0.5675    0.5141 C.ar    1  UNL1       -0.0241
     29 H          -0.7247   -1.4158   -1.6110 H       1  UNL1        0.0299
     30 H          -0.2601   -1.5490    0.0885 H       1  UNL1        0.0299
     31 H          -0.0367    0.7508    1.5095 H       1  UNL1        0.0299
     32 H          -0.1959    2.2687    0.6438 H       1  UNL1        0.0299
     33 H           1.4495   -0.3743   -2.0848 H       1  UNL1        0.0427
     34 H           1.6262   -1.8985   -1.2188 H       1  UNL1        0.0427
     35 H           2.1169    1.6623    0.9772 H       1  UNL1        0.0427
     36 H           1.7568    1.7993   -0.7378 H       1  UNL1        0.0427
     37 H           0.0819    1.4757   -2.2594 H       1  UNL1        0.0581
     38 H          -1.3343    2.3130   -1.6281 H       1  UNL1        0.0581
     39 H           3.7429   -1.1804   -0.7942 H       1  UNL1        0.0430
     40 H           3.7412    0.5489   -1.0973 H       1  UNL1        0.0430
     41 H           4.0147    0.8763    1.4575 H       1  UNL1        0.0331
     42 H           4.0634   -0.8715    1.6205 H       1  UNL1        0.0331
     43 H          -4.8683    0.6450    0.1759 H       1  UNL1        0.0358
     44 H          -4.2344    0.3812    1.8221 H       1  UNL1        0.0358
     45 H          -3.6770   -1.0045   -1.7264 H       1  UNL1        0.0636
     46 H          -1.7502   -1.3174    2.1182 H       1  UNL1        0.0636
     47 H          -4.5435    2.7935    2.3295 H       1  UNL1        0.0267
     48 H          -5.1494    3.0744    0.6993 H       1  UNL1        0.0267
     49 H          -2.5050    0.7067   -4.6053 H       1  UNL1        0.0523
     50 H          -2.3474    2.2758   -3.7861 H       1  UNL1        0.0523
     51 H          -0.8956    1.4406   -4.4331 H       1  UNL1        0.0523
     52 H          -4.5323   -3.3060   -1.4781 H       1  UNL1        0.0618
     53 H          -2.6129   -3.6203    2.3536 H       1  UNL1        0.0618
     54 H          -4.0057   -4.6191    0.5599 H       1  UNL1        0.0618
     55 H           6.1107   -1.9559   -0.3362 H       1  UNL1        0.0626
     56 H          -7.0595    1.5154    1.1283 H       1  UNL1        0.0230
     57 H          -6.4523    1.2297    2.7713 H       1  UNL1        0.0230
     58 H          -7.0171    2.8423    2.3019 H       1  UNL1        0.0230
     59 H           8.6672   -1.2856   -0.4857 H       1  UNL1        0.0623
     60 H           9.0921    1.0801    0.5886 H       1  UNL1        0.0693
@<TRIPOS>BOND
     1     1    19   ar
     2     1    28   ar
     3     2    11    1
     4     2    21    1
     5     3    14    2
     6     4     9    1
     7     4    10    1
     8     4    12    1
     9     5     6    1
    10     5    13    1
    11     5    14   am
    12     6     7    1
    13     6     8    1
    14     6    11    1
    15     7     9    1
    16     7    29    1
    17     7    30    1
    18     8    10    1
    19     8    31    1
    20     8    32    1
    21     9    33    1
    22     9    34    1
    23    10    35    1
    24    10    36    1
    25    11    37    1
    26    11    38    1
    27    12    15    1
    28    12    39    1
    29    12    40    1
    30    13    17   ar
    31    13    18   ar
    32    14    16    1
    33    15    19    1
    34    15    41    1
    35    15    42    1
    36    16    20    1
    37    16    43    1
    38    16    44    1
    39    17    22   ar
    40    17    45    1
    41    18    23   ar
    42    18    46    1
    43    19    25   ar
    44    20    26    1
    45    20    47    1
    46    20    48    1
    47    21    49    1
    48    21    50    1
    49    21    51    1
    50    22    24   ar
    51    22    52    1
    52    23    24   ar
    53    23    53    1
    54    24    54    1
    55    25    27   ar
    56    25    55    1
    57    26    56    1
    58    26    57    1
    59    26    58    1
    60    27    28   ar
    61    27    59    1
    62    28    60    1
@<TRIPOS>MOLECULE
162172
 44 45 0 0 0
SMALL
GASTEIGER

@<TRIPOS>ATOM
      1 O           1.1333   -0.5999    2.2188 O.3     1  UNL1       -0.3808
      2 O           0.1781   -2.7803   -0.7210 O.2     1  UNL1       -0.2752
      3 N          -0.1956   -0.4985   -0.2430 N.am    1  UNL1       -0.2630
      4 N           3.2579    1.6880   -1.2645 N.3     1  UNL1       -0.3158
      5 C           1.1984   -0.0993   -0.1201 C.3     1  UNL1        0.0677
      6 C           1.9190   -0.3825   -1.4529 C.3     1  UNL1       -0.0163
      7 C           1.2694    1.4126    0.1779 C.3     1  UNL1       -0.0163
      8 C           3.3098    0.2500   -1.5236 C.3     1  UNL1       -0.0021
      9 C           2.6841    1.9787    0.0483 C.3     1  UNL1       -0.0021
     10 C           1.8266   -0.9090    1.0264 C.3     1  UNL1        0.0691
     11 C          -1.2297    0.5096   -0.0553 C.ar    1  UNL1        0.0370
     12 C          -0.5892   -1.8317   -0.5388 C.2     1  UNL1        0.2201
     13 C          -2.0929   -2.0535   -0.6740 C.3     1  UNL1        0.0217
     14 C          -1.7135    0.6975    1.2075 C.ar    1  UNL1       -0.0402
     15 C          -1.6497    1.2025   -1.1543 C.ar    1  UNL1       -0.0402
     16 C           1.6562   -1.3124    3.3353 C.3     1  UNL1        0.0365
     17 C          -2.4507   -3.5011   -0.9755 C.3     1  UNL1       -0.0570
     18 C          -2.7040    1.6631    1.3871 C.ar    1  UNL1       -0.0600
     19 C          -2.6403    2.1680   -0.9746 C.ar    1  UNL1       -0.0600
     20 C          -3.1674    2.3982    0.2961 C.ar    1  UNL1       -0.0616
     21 H           1.3171    0.0058   -2.2868 H       1  UNL1        0.0299
     22 H           2.0262   -1.4580   -1.6326 H       1  UNL1        0.0299
     23 H           0.8953    1.6642    1.1773 H       1  UNL1        0.0299
     24 H           0.6838    1.9957   -0.5418 H       1  UNL1        0.0299
     25 H           3.9979   -0.2384   -0.8241 H       1  UNL1        0.0425
     26 H           3.7199    0.0909   -2.5272 H       1  UNL1        0.0425
     27 H           2.6455    3.0663    0.1788 H       1  UNL1        0.0425
     28 H           3.3339    1.5930    0.8422 H       1  UNL1        0.0425
     29 H           2.8828   -0.6486    1.1570 H       1  UNL1        0.0581
     30 H           1.7887   -1.9883    0.8484 H       1  UNL1        0.0581
     31 H           4.2005    2.0735   -1.3134 H       1  UNL1        0.1219
     32 H          -2.4795   -1.4331   -1.4883 H       1  UNL1        0.0356
     33 H          -2.5889   -1.7742    0.2605 H       1  UNL1        0.0356
     34 H          -1.3680    0.1216    2.0584 H       1  UNL1        0.0636
     35 H          -1.2415    1.0232   -2.1436 H       1  UNL1        0.0636
     36 H           1.5547   -2.3911    3.1821 H       1  UNL1        0.0523
     37 H           1.0820   -1.0296    4.2215 H       1  UNL1        0.0523
     38 H           2.7058   -1.0500    3.4994 H       1  UNL1        0.0523
     39 H          -3.5359   -3.6155   -1.0586 H       1  UNL1        0.0234
     40 H          -2.0966   -4.1673   -0.1818 H       1  UNL1        0.0234
     41 H          -1.9999   -3.8300   -1.9177 H       1  UNL1        0.0234
     42 H          -3.1166    1.8403    2.3761 H       1  UNL1        0.0618
     43 H          -3.0014    2.7400   -1.8242 H       1  UNL1        0.0618
     44 H          -3.9392    3.1494    0.4359 H       1  UNL1        0.0618
@<TRIPOS>BOND
     1     1    10    1
     2     1    16    1
     3     2    12    2
     4     3     5    1
     5     3    11    1
     6     3    12   am
     7     4     8    1
     8     4     9    1
     9     4    31    1
    10     5     6    1
    11     5     7    1
    12     5    10    1
    13     6     8    1
    14     6    21    1
    15     6    22    1
    16     7     9    1
    17     7    23    1
    18     7    24    1
    19     8    25    1
    20     8    26    1
    21     9    27    1
    22     9    28    1
    23    10    29    1
    24    10    30    1
    25    11    14   ar
    26    11    15   ar
    27    12    13    1
    28    13    17    1
    29    13    32    1
    30    13    33    1
    31    14    18   ar
    32    14    34    1
    33    15    19   ar
    34    15    35    1
    35    16    36    1
    36    16    37    1
    37    16    38    1
    38    17    39    1
    39    17    40    1
    40    17    41    1
    41    18    20   ar
    42    18    42    1
    43    19    20   ar
    44    19    43    1
    45    20    44    1
@<TRIPOS>MOLECULE
21120849
 54 56 0 0 0
SMALL
GASTEIGER

@<TRIPOS>ATOM
      1 S          -6.5252   -1.0770   -1.0181 S.2     1  UNL1       -0.1016
      2 O           2.0589   -0.8369    2.7421 O.3     1  UNL1       -0.3929
      3 O           2.8220   -2.8750   -0.3263 O.2     1  UNL1       -0.2752
      4 N          -1.7358    0.0942    0.1329 N.3     1  UNL1       -0.3018
      5 N           2.4259   -0.5696   -0.0043 N.am    1  UNL1       -0.2630
      6 C           1.0902   -0.6836    0.5609 C.3     1  UNL1        0.0675
      7 C           0.5448    0.7278    0.8534 C.3     1  UNL1       -0.0160
      8 C           0.1664   -1.3712   -0.4633 C.3     1  UNL1       -0.0160
      9 C          -0.9483    0.7348    1.1933 C.3     1  UNL1        0.0009
     10 C          -1.3141   -1.2958   -0.0801 C.3     1  UNL1        0.0009
     11 C           1.1935   -1.5116    1.8513 C.3     1  UNL1        0.0661
     12 C          -3.1632    0.1547    0.4467 C.3     1  UNL1        0.0034
     13 C           3.0053    0.7567   -0.1652 C.ar    1  UNL1        0.0369
     14 C           3.1886   -1.6997   -0.4060 C.2     1  UNL1        0.2201
     15 C          -4.0087    0.0987   -0.8273 C.3     1  UNL1       -0.0086
     16 C           4.5862   -1.3896   -0.9344 C.3     1  UNL1        0.0217
     17 C           2.8075    1.4650   -1.3506 C.ar    1  UNL1       -0.0402
     18 C           3.7574    1.3193    0.8661 C.ar    1  UNL1       -0.0402
     19 C          -5.4821    0.1837   -0.5136 C.ar    1  UNL1       -0.0090
     20 C           5.3454   -2.6368   -1.3613 C.3     1  UNL1       -0.0570
     21 C           3.3620    2.7355   -1.5048 C.ar    1  UNL1       -0.0600
     22 C           4.3119    2.5900    0.7119 C.ar    1  UNL1       -0.0600
     23 C          -6.1599    1.1790    0.1556 C.ar    1  UNL1       -0.0515
     24 C           4.1141    3.2981   -0.4736 C.ar    1  UNL1       -0.0616
     25 C          -7.5541    0.9026    0.2557 C.ar    1  UNL1       -0.0545
     26 C          -7.8887   -0.2931   -0.3409 C.ar    1  UNL1       -0.0241
     27 H           1.0790    1.2230    1.6730 H       1  UNL1        0.0299
     28 H           0.6215    1.3807   -0.0238 H       1  UNL1        0.0299
     29 H           0.2958   -0.9021   -1.4491 H       1  UNL1        0.0299
     30 H           0.4288   -2.4270   -0.5946 H       1  UNL1        0.0299
     31 H          -1.1216    0.2489    2.1616 H       1  UNL1        0.0427
     32 H          -1.2587    1.7818    1.3030 H       1  UNL1        0.0427
     33 H          -1.5014   -1.9071    0.8117 H       1  UNL1        0.0427
     34 H          -1.8837   -1.7498   -0.8985 H       1  UNL1        0.0427
     35 H           0.2226   -1.6174    2.3444 H       1  UNL1        0.0579
     36 H           1.5801   -2.5211    1.6899 H       1  UNL1        0.0579
     37 H          -3.4577   -0.6317    1.1548 H       1  UNL1        0.0430
     38 H          -3.3878    1.1067    0.9469 H       1  UNL1        0.0430
     39 H          -3.7982   -0.8149   -1.3947 H       1  UNL1        0.0331
     40 H          -3.7486    0.9400   -1.4832 H       1  UNL1        0.0331
     41 H           2.1056   -1.3667    3.5560 H       1  UNL1        0.2095
     42 H           5.1660   -0.8901   -0.1521 H       1  UNL1        0.0356
     43 H           4.5087   -0.7297   -1.8040 H       1  UNL1        0.0356
     44 H           2.2243    1.0352   -2.1609 H       1  UNL1        0.0636
     45 H           3.9293    0.7775    1.7914 H       1  UNL1        0.0636
     46 H           4.8116   -3.1700   -2.1549 H       1  UNL1        0.0234
     47 H           5.4747   -3.3261   -0.5203 H       1  UNL1        0.0234
     48 H           6.3374   -2.3683   -1.7376 H       1  UNL1        0.0234
     49 H           3.2083    3.2866   -2.4279 H       1  UNL1        0.0618
     50 H           4.8994    3.0271    1.5139 H       1  UNL1        0.0618
     51 H          -5.6858    2.0671    0.5536 H       1  UNL1        0.0626
     52 H           4.5463    4.2871   -0.5939 H       1  UNL1        0.0618
     53 H          -8.2751    1.5485    0.7397 H       1  UNL1        0.0623
     54 H          -8.8686   -0.7436   -0.4118 H       1  UNL1        0.0693
@<TRIPOS>BOND
     1     1    19   ar
     2     1    26   ar
     3     2    11    1
     4     2    41    1
     5     3    14    2
     6     4     9    1
     7     4    10    1
     8     4    12    1
     9     5     6    1
    10     5    13    1
    11     5    14   am
    12     6     7    1
    13     6     8    1
    14     6    11    1
    15     7     9    1
    16     7    27    1
    17     7    28    1
    18     8    10    1
    19     8    29    1
    20     8    30    1
    21     9    31    1
    22     9    32    1
    23    10    33    1
    24    10    34    1
    25    11    35    1
    26    11    36    1
    27    12    15    1
    28    12    37    1
    29    12    38    1
    30    13    17   ar
    31    13    18   ar
    32    14    16    1
    33    15    19    1
    34    15    39    1
    35    15    40    1
    36    16    20    1
    37    16    42    1
    38    16    43    1
    39    17    21   ar
    40    17    44    1
    41    18    22   ar
    42    18    45    1
    43    19    23   ar
    44    20    46    1
    45    20    47    1
    46    20    48    1
    47    21    24   ar
    48    21    49    1
    49    22    24   ar
    50    22    50    1
    51    23    25   ar
    52    23    51    1
    53    24    52    1
    54    25    26   ar
    55    25    53    1
    56    26    54    1
