@<TRIPOS>MOLECULE
5324289
 44 48 0 0 0
SMALL
GASTEIGER

@<TRIPOS>ATOM
      1 O          -1.3885    1.2918   -0.7887 O.3     1  UNL1       -0.4760
      2 O          -0.3074    3.7201    0.3071 O.2     1  UNL1       -0.4956
      3 O          -3.9740    0.0376   -0.3859 O.3     1  UNL1       -0.4914
      4 N           2.9222   -1.8716   -0.4179 N.3     1  UNL1       -0.2984
      5 C           0.7655    0.1552   -0.4835 C.3     1  UNL1        0.0673
      6 C           1.7093    0.0066    0.6783 C.2     1  UNL1       -0.0375
      7 C           2.1905   -1.4317    0.7967 C.3     1  UNL1        0.0366
      8 C           0.0563    1.5209   -0.6795 C.3     1  UNL1        0.1701
      9 C           1.4641   -0.3120   -1.7782 C.3     1  UNL1       -0.0227
     10 C          -0.4158   -0.6740   -0.1335 C.ar    1  UNL1        0.0154
     11 C           0.9609   -2.3875    1.0624 C.3     1  UNL1       -0.0078
     12 C           2.1331   -1.6919   -1.6476 C.3     1  UNL1        0.0004
     13 C          -0.3698   -1.8940    0.5286 C.ar    1  UNL1       -0.0377
     14 C          -1.5887   -0.0007   -0.3818 C.ar    1  UNL1        0.1674
     15 C           0.3622    2.5185    0.4163 C.2     1  UNL1        0.1388
     16 C           1.9438    1.0131    1.5315 C.2     1  UNL1       -0.0568
     17 C           1.2525    2.2774    1.3963 C.2     1  UNL1       -0.0204
     18 C          -1.5891   -2.5195    0.7870 C.ar    1  UNL1       -0.0545
     19 C           4.2361   -1.2353   -0.5235 C.3     1  UNL1       -0.0122
     20 C          -2.8042   -0.5994   -0.1311 C.ar    1  UNL1        0.1619
     21 C          -2.7972   -1.8825    0.4362 C.ar    1  UNL1       -0.0160
     22 C           0.4194    4.6274   -0.4978 C.3     1  UNL1        0.0785
     23 C          -5.1812   -0.6683   -0.0915 C.3     1  UNL1        0.0790
     24 H           2.8637   -1.5447    1.6568 H       1  UNL1        0.0512
     25 H           0.3618    1.9650   -1.6354 H       1  UNL1        0.0828
     26 H           2.2302    0.4241   -2.0575 H       1  UNL1        0.0290
     27 H           0.7498   -0.3498   -2.6112 H       1  UNL1        0.0290
     28 H           0.8532   -2.4787    2.1522 H       1  UNL1        0.0332
     29 H           1.1627   -3.3966    0.6821 H       1  UNL1        0.0332
     30 H           1.3612   -2.4701   -1.6862 H       1  UNL1        0.0427
     31 H           2.7545   -1.8807   -2.5323 H       1  UNL1        0.0427
     32 H           2.5897    0.8816    2.3926 H       1  UNL1        0.0619
     33 H           1.4553    3.0296    2.1524 H       1  UNL1        0.0652
     34 H          -1.6184   -3.4795    1.2952 H       1  UNL1        0.0622
     35 H           4.7960   -1.6553   -1.3667 H       1  UNL1        0.0391
     36 H           4.8333   -1.4360    0.3730 H       1  UNL1        0.0391
     37 H           4.1782   -0.1505   -0.6610 H       1  UNL1        0.0391
     38 H          -3.7043   -2.4292    0.6758 H       1  UNL1        0.0655
     39 H          -0.1229    5.5778   -0.5112 H       1  UNL1        0.0660
     40 H           0.4976    4.2747   -1.5315 H       1  UNL1        0.0660
     41 H           1.4178    4.8183   -0.0884 H       1  UNL1        0.0660
     42 H          -6.0144   -0.0165   -0.3732 H       1  UNL1        0.0660
     43 H          -5.2760   -0.8677    0.9812 H       1  UNL1        0.0660
     44 H          -5.2683   -1.5807   -0.6910 H       1  UNL1        0.0660
@<TRIPOS>BOND
     1     1     8    1
     2     1    14    1
     3     2    15    1
     4     2    22    1
     5     3    20    1
     6     3    23    1
     7     4     7    1
     8     4    12    1
     9     4    19    1
    10     5     6    1
    11     5     8    1
    12     5     9    1
    13     5    10    1
    14     6     7    1
    15     6    16    2
    16     7    11    1
    17     7    24    1
    18     8    15    1
    19     8    25    1
    20     9    12    1
    21     9    26    1
    22     9    27    1
    23    10    13   ar
    24    10    14   ar
    25    11    13    1
    26    11    28    1
    27    11    29    1
    28    12    30    1
    29    12    31    1
    30    13    18   ar
    31    14    20   ar
    32    15    17    2
    33    16    17    1
    34    16    32    1
    35    17    33    1
    36    18    21   ar
    37    18    34    1
    38    19    35    1
    39    19    36    1
    40    19    37    1
    41    20    21   ar
    42    21    38    1
    43    22    39    1
    44    22    40    1
    45    22    41    1
    46    23    42    1
    47    23    43    1
    48    23    44    1
@<TRIPOS>MOLECULE
131706816
 44 48 0 0 0
SMALL
GASTEIGER

@<TRIPOS>ATOM
      1 O           1.6735   -0.9595   -0.8078 O.3     1  UNL1       -0.4760
      2 O           1.2315   -3.6057    0.2992 O.2     1  UNL1       -0.4956
      3 O           3.8537    0.9027   -0.3606 O.3     1  UNL1       -0.4914
      4 N          -3.3120    0.8821   -0.4531 N.3     1  UNL1       -0.2984
      5 C          -0.7003   -0.4109   -0.5076 C.3     1  UNL1        0.0673
      6 C          -1.6630   -0.5253    0.6451 C.2     1  UNL1       -0.0375
      7 C          -2.4949    0.7436    0.7751 C.3     1  UNL1        0.0366
      8 C           0.3341   -1.5488   -0.7127 C.3     1  UNL1        0.1701
      9 C          -1.4796   -0.1127   -1.8064 C.3     1  UNL1       -0.0227
     10 C           0.2299    0.6840   -0.1333 C.ar    1  UNL1        0.0154
     11 C          -1.5436    1.9700    1.0745 C.3     1  UNL1       -0.0078
     12 C          -2.4983    1.0323   -1.6658 C.3     1  UNL1        0.0004
     13 C          -0.1287    1.8405    0.5451 C.ar    1  UNL1       -0.0377
     14 C           1.5369    0.3346   -0.3796 C.ar    1  UNL1        0.1674
     15 C           0.2860   -2.6027    0.3732 C.2     1  UNL1        0.1388
     16 C          -1.6395   -1.5712    1.4832 C.2     1  UNL1       -0.0568
     17 C          -0.6438   -2.6122    1.3433 C.2     1  UNL1       -0.0204
     18 C           0.8906    2.7503    0.8255 C.ar    1  UNL1       -0.0545
     19 C          -4.3243    1.9288   -0.3564 C.3     1  UNL1       -0.0122
     20 C           2.5591    1.2177   -0.1083 C.ar    1  UNL1        0.1619
     21 C           2.2231    2.4472    0.4776 C.ar    1  UNL1       -0.0160
     22 C           0.7693   -4.6718   -0.5065 C.3     1  UNL1        0.0785
     23 C           4.8402    1.8872   -0.0438 C.3     1  UNL1        0.0790
     24 H          -3.1830    0.6343    1.6238 H       1  UNL1        0.0512
     25 H           0.1569   -2.0490   -1.6732 H       1  UNL1        0.0828
     26 H          -2.0224   -1.0194   -2.1088 H       1  UNL1        0.0290
     27 H          -0.7920    0.1292   -2.6274 H       1  UNL1        0.0290
     28 H          -1.4656    2.0512    2.1678 H       1  UNL1        0.0332
     29 H          -1.9758    2.9130    0.7257 H       1  UNL1        0.0332
     30 H          -1.9799    1.9988   -1.6810 H       1  UNL1        0.0427
     31 H          -3.1471    1.0149   -2.5504 H       1  UNL1        0.0427
     32 H          -2.3039   -1.6219    2.3387 H       1  UNL1        0.0619
     33 H          -0.6519   -3.3979    2.0926 H       1  UNL1        0.0652
     34 H           0.6720    3.6774    1.3485 H       1  UNL1        0.0622
     35 H          -5.0052    1.8755   -1.2134 H       1  UNL1        0.0391
     36 H          -3.8976    2.9363   -0.3314 H       1  UNL1        0.0391
     37 H          -4.9414    1.7917    0.5384 H       1  UNL1        0.0391
     38 H           2.9600    3.2021    0.7346 H       1  UNL1        0.0655
     39 H           1.5352   -5.4535   -0.5070 H       1  UNL1        0.0660
     40 H           0.6168   -4.3540   -1.5434 H       1  UNL1        0.0660
     41 H          -0.1532   -5.1078   -0.1069 H       1  UNL1        0.0660
     42 H           5.8134    1.4729   -0.3266 H       1  UNL1        0.0660
     43 H           4.8749    2.0861    1.0326 H       1  UNL1        0.0660
     44 H           4.6963    2.8016   -0.6292 H       1  UNL1        0.0660
@<TRIPOS>BOND
     1     1     8    1
     2     1    14    1
     3     2    15    1
     4     2    22    1
     5     3    20    1
     6     3    23    1
     7     4     7    1
     8     4    12    1
     9     4    19    1
    10     5     6    1
    11     5     8    1
    12     5     9    1
    13     5    10    1
    14     6     7    1
    15     6    16    2
    16     7    11    1
    17     7    24    1
    18     8    15    1
    19     8    25    1
    20     9    12    1
    21     9    26    1
    22     9    27    1
    23    10    13   ar
    24    10    14   ar
    25    11    13    1
    26    11    28    1
    27    11    29    1
    28    12    30    1
    29    12    31    1
    30    13    18   ar
    31    14    20   ar
    32    15    17    2
    33    16    17    1
    34    16    32    1
    35    17    33    1
    36    18    21   ar
    37    18    34    1
    38    19    35    1
    39    19    36    1
    40    19    37    1
    41    20    21   ar
    42    21    38    1
    43    22    39    1
    44    22    40    1
    45    22    41    1
    46    23    42    1
    47    23    43    1
    48    23    44    1
@<TRIPOS>MOLECULE
15450568
 45 49 0 0 0
SMALL
GASTEIGER

@<TRIPOS>ATOM
      1 O          -1.8730   -0.4225    1.1105 O.3     1  UNL1       -0.4760
      2 O           4.3322    1.2359   -0.0843 O.co2   1  UNL1       -0.7750
      3 O          -2.1412   -3.1675    0.3010 O.2     1  UNL1       -0.4956
      4 O          -3.6164    1.8474    0.6347 O.3     1  UNL1       -0.4914
      5 N           3.4032    0.2609    0.2068 N.3     1  UNL1        0.2205
      6 C           0.5256   -0.4630    0.5834 C.3     1  UNL1        0.0746
      7 C           2.3907    0.1310   -0.9475 C.3     1  UNL1        0.0052
      8 C           1.3162   -0.8917   -0.6225 C.2     1  UNL1       -0.0071
      9 C           1.4630   -0.2485    1.7924 C.3     1  UNL1        0.0049
     10 C          -0.7137   -1.3113    0.9788 C.3     1  UNL1        0.1704
     11 C          -0.1693    0.7817    0.1684 C.ar    1  UNL1        0.0159
     12 C           2.6800    0.6314    1.4905 C.3     1  UNL1       -0.0311
     13 C           1.7203    1.5172   -1.2984 C.3     1  UNL1        0.0199
     14 C           0.3695    1.7619   -0.6533 C.ar    1  UNL1       -0.0339
     15 C          -1.4921    0.7650    0.5438 C.ar    1  UNL1        0.1674
     16 C           0.9828   -1.9712   -1.3431 C.2     1  UNL1       -0.0530
     17 C          -1.0053   -2.4388    0.0127 C.2     1  UNL1        0.1388
     18 C           4.1654   -1.0271    0.3886 C.3     1  UNL1       -0.0433
     19 C          -0.1978   -2.7432   -1.0199 C.2     1  UNL1       -0.0203
     20 C          -0.4439    2.8553   -0.9510 C.ar    1  UNL1       -0.0544
     21 C          -2.3140    1.8335    0.2577 C.ar    1  UNL1        0.1619
     22 C          -1.7707    2.8983   -0.4760 C.ar    1  UNL1       -0.0160
     23 C          -3.0421   -3.1443   -0.7888 C.3     1  UNL1        0.0785
     24 C          -4.5695    1.3096   -0.2844 C.3     1  UNL1        0.0790
     25 H           3.0043   -0.1812   -1.8024 H       1  UNL1        0.0903
     26 H           1.8160   -1.2262    2.1460 H       1  UNL1        0.0330
     27 H           0.9148    0.1995    2.6316 H       1  UNL1        0.0330
     28 H          -0.5674   -1.7644    1.9685 H       1  UNL1        0.0828
     29 H           2.3920    1.6834    1.3862 H       1  UNL1        0.0814
     30 H           3.4215    0.5737    2.2957 H       1  UNL1        0.0814
     31 H           1.5555    1.5266   -2.3844 H       1  UNL1        0.0372
     32 H           2.3826    2.3571   -1.0649 H       1  UNL1        0.0372
     33 H           1.5352   -2.2440   -2.2355 H       1  UNL1        0.0620
     34 H           3.4764   -1.8291    0.6560 H       1  UNL1        0.0777
     35 H           4.6734   -1.2434   -0.5555 H       1  UNL1        0.0777
     36 H           4.8991   -0.8643    1.1833 H       1  UNL1        0.0777
     37 H          -0.4114   -3.5816   -1.6751 H       1  UNL1        0.0652
     38 H          -0.0772    3.6588   -1.5839 H       1  UNL1        0.0622
     39 H          -2.3930    3.7536   -0.7297 H       1  UNL1        0.0655
     40 H          -4.0065   -3.5223   -0.4350 H       1  UNL1        0.0660
     41 H          -2.7105   -3.8035   -1.5977 H       1  UNL1        0.0660
     42 H          -3.2041   -2.1274   -1.1657 H       1  UNL1        0.0660
     43 H          -5.5624    1.3912    0.1658 H       1  UNL1        0.0660
     44 H          -4.3587    0.2537   -0.4810 H       1  UNL1        0.0660
     45 H          -4.5603    1.8767   -1.2206 H       1  UNL1        0.0660
@<TRIPOS>UNITY_ATOM_ATTR
2 1
charge -1
5 1
charge 1
@<TRIPOS>BOND
     1     1    10    1
     2     1    15    1
     3     2     5    1
     4     3    17    1
     5     3    23    1
     6     4    21    1
     7     4    24    1
     8     5     7    1
     9     5    12    1
    10     5    18    1
    11     6     8    1
    12     6     9    1
    13     6    10    1
    14     6    11    1
    15     7     8    1
    16     7    13    1
    17     7    25    1
    18     8    16    2
    19     9    12    1
    20     9    26    1
    21     9    27    1
    22    10    17    1
    23    10    28    1
    24    11    14   ar
    25    11    15   ar
    26    12    29    1
    27    12    30    1
    28    13    14    1
    29    13    31    1
    30    13    32    1
    31    14    20   ar
    32    15    21   ar
    33    16    19    1
    34    16    33    1
    35    17    19    2
    36    18    34    1
    37    18    35    1
    38    18    36    1
    39    19    37    1
    40    20    22   ar
    41    20    38    1
    42    21    22   ar
    43    22    39    1
    44    23    40    1
    45    23    41    1
    46    23    42    1
    47    24    43    1
    48    24    44    1
    49    24    45    1
@<TRIPOS>MOLECULE
5321926
 44 48 0 0 0
SMALL
GASTEIGER

@<TRIPOS>ATOM
      1 O           1.3109   -1.5566   -0.1077 O.3     1  UNL1       -0.4760
      2 O          -0.6819   -3.8308    0.1772 O.2     1  UNL1       -0.4956
      3 O           4.0663   -0.4165    0.0368 O.3     1  UNL1       -0.4914
      4 N          -2.4677    1.8820   -0.8501 N.3     1  UNL1       -0.2984
      5 C          -0.6329   -0.2036   -0.0480 C.3     1  UNL1        0.0673
      6 C          -1.8321    0.2045    0.7251 C.2     1  UNL1       -0.0375
      7 C          -2.0422    1.6993    0.5688 C.3     1  UNL1        0.0366
      8 C          -0.0002   -1.4755    0.5075 C.3     1  UNL1        0.1701
      9 C          -1.0182   -0.0846   -1.5363 C.3     1  UNL1       -0.0227
     10 C           0.5734    0.5969    0.2069 C.ar    1  UNL1        0.0154
     11 C          -0.7492    2.5318    0.9805 C.3     1  UNL1       -0.0078
     12 C          -1.5190    1.3542   -1.8525 C.3     1  UNL1        0.0004
     13 C           0.5820    1.9078    0.6193 C.ar    1  UNL1       -0.0377
     14 C           1.6916   -0.2178    0.0529 C.ar    1  UNL1        0.1674
     15 C          -1.0379   -2.5518    0.5086 C.2     1  UNL1        0.1388
     16 C          -2.6050   -0.7789    1.2329 C.2     1  UNL1       -0.0568
     17 C          -2.2750   -2.1911    0.9284 C.2     1  UNL1       -0.0204
     18 C           1.8443    2.4692    0.7747 C.ar    1  UNL1       -0.0545
     19 C          -2.8777    3.2450   -1.1657 C.3     1  UNL1       -0.0122
     20 C           2.9433    0.3245    0.1829 C.ar    1  UNL1        0.1619
     21 C           3.0099    1.6891    0.5339 C.ar    1  UNL1       -0.0160
     22 C          -0.9079   -4.0866   -1.1997 C.3     1  UNL1        0.0785
     23 C           4.6254   -0.5105   -1.2764 C.3     1  UNL1        0.0790
     24 H          -2.8716    2.0153    1.2144 H       1  UNL1        0.0512
     25 H           0.2253   -1.3820    1.5915 H       1  UNL1        0.0828
     26 H          -1.8179   -0.7962   -1.7817 H       1  UNL1        0.0290
     27 H          -0.1776   -0.3233   -2.2001 H       1  UNL1        0.0290
     28 H          -0.7650    2.6248    2.0751 H       1  UNL1        0.0332
     29 H          -0.7963    3.5496    0.5812 H       1  UNL1        0.0332
     30 H          -0.6555    2.0239   -1.9514 H       1  UNL1        0.0427
     31 H          -2.0062    1.3306   -2.8352 H       1  UNL1        0.0427
     32 H          -3.5481   -0.5702    1.7240 H       1  UNL1        0.0619
     33 H          -3.0777   -2.9159    1.0105 H       1  UNL1        0.0652
     34 H           1.9529    3.4992    1.1033 H       1  UNL1        0.0622
     35 H          -3.3770    3.2727   -2.1408 H       1  UNL1        0.0391
     36 H          -2.0358    3.9435   -1.2023 H       1  UNL1        0.0391
     37 H          -3.6042    3.6137   -0.4334 H       1  UNL1        0.0391
     38 H           3.9832    2.1582    0.6679 H       1  UNL1        0.0655
     39 H          -1.9714   -4.0000   -1.4482 H       1  UNL1        0.0660
     40 H          -0.5917   -5.1120   -1.4125 H       1  UNL1        0.0660
     41 H          -0.3179   -3.4109   -1.8287 H       1  UNL1        0.0660
     42 H           3.9128   -0.9808   -1.9613 H       1  UNL1        0.0660
     43 H           5.5239   -1.1310   -1.2221 H       1  UNL1        0.0660
     44 H           4.9038    0.4822   -1.6441 H       1  UNL1        0.0660
@<TRIPOS>BOND
     1     1     8    1
     2     1    14    1
     3     2    15    1
     4     2    22    1
     5     3    20    1
     6     3    23    1
     7     4     7    1
     8     4    12    1
     9     4    19    1
    10     5     6    1
    11     5     8    1
    12     5     9    1
    13     5    10    1
    14     6     7    1
    15     6    16    2
    16     7    11    1
    17     7    24    1
    18     8    15    1
    19     8    25    1
    20     9    12    1
    21     9    26    1
    22     9    27    1
    23    10    13   ar
    24    10    14   ar
    25    11    13    1
    26    11    28    1
    27    11    29    1
    28    12    30    1
    29    12    31    1
    30    13    18   ar
    31    14    20   ar
    32    15    17    2
    33    16    17    1
    34    16    32    1
    35    17    33    1
    36    18    21   ar
    37    18    34    1
    38    19    35    1
    39    19    36    1
    40    19    37    1
    41    20    21   ar
    42    21    38    1
    43    22    39    1
    44    22    40    1
    45    22    41    1
    46    23    42    1
    47    23    43    1
    48    23    44    1
@<TRIPOS>MOLECULE
71752499
 44 48 0 0 0
SMALL
GASTEIGER

@<TRIPOS>ATOM
      1 O           1.4976    1.2187    0.8916 O.3     1  UNL1       -0.4760
      2 O           0.5439    3.5760   -0.5537 O.2     1  UNL1       -0.4956
      3 O           4.0306   -0.0992    0.4118 O.3     1  UNL1       -0.4914
      4 N          -3.2884   -1.5407    0.4773 N.3     1  UNL1       -0.2984
      5 C          -0.7049    0.1889    0.6549 C.3     1  UNL1        0.0673
      6 C          -1.6026   -0.0559   -0.5018 C.2     1  UNL1       -0.0375
      7 C          -2.0605   -1.4954   -0.3082 C.3     1  UNL1        0.0366
      8 C           0.0716    1.5204    0.7223 C.3     1  UNL1        0.1701
      9 C          -1.5985   -0.1102    1.9279 C.3     1  UNL1       -0.0227
     10 C           0.4499   -0.7343    0.3053 C.ar    1  UNL1        0.0154
     11 C          -1.0193   -2.4113   -0.9948 C.3     1  UNL1       -0.0078
     12 C          -3.1241   -0.5157    1.5815 C.3     1  UNL1        0.0004
     13 C           0.3684   -1.9417   -0.4488 C.ar    1  UNL1       -0.0377
     14 C           1.6466   -0.0908    0.5111 C.ar    1  UNL1        0.1674
     15 C          -0.1594    2.3890   -0.5038 C.2     1  UNL1        0.1388
     16 C          -1.7657    0.8208   -1.4985 C.2     1  UNL1       -0.0568
     17 C          -1.0239    2.0667   -1.4844 C.2     1  UNL1       -0.0204
     18 C           1.5641   -2.5739   -0.7786 C.ar    1  UNL1       -0.0545
     19 C          -4.4880   -1.3213   -0.3144 C.3     1  UNL1       -0.0122
     20 C           2.8383   -0.7101    0.1934 C.ar    1  UNL1        0.1619
     21 C           2.7892   -1.9706   -0.4280 C.ar    1  UNL1       -0.0160
     22 C          -0.1746    4.6112    0.0877 C.3     1  UNL1        0.0785
     23 C           5.2095   -0.8205    0.0503 C.3     1  UNL1        0.0790
     24 H          -2.6153   -1.5776   -1.2603 H       1  UNL1        0.0512
     25 H          -0.2214    2.0963    1.6075 H       1  UNL1        0.0828
     26 H          -1.6395    0.7589    2.5941 H       1  UNL1        0.0290
     27 H          -1.1502   -0.9340    2.4981 H       1  UNL1        0.0290
     28 H          -1.0017   -2.3371   -2.0906 H       1  UNL1        0.0332
     29 H          -1.1774   -3.4532   -0.6964 H       1  UNL1        0.0332
     30 H          -3.6005   -0.9025    2.4892 H       1  UNL1        0.0427
     31 H          -3.6455    0.4129    1.3108 H       1  UNL1        0.0427
     32 H          -2.3788    0.5973   -2.3636 H       1  UNL1        0.0619
     33 H          -1.1659    2.7270   -2.3345 H       1  UNL1        0.0652
     34 H           1.5625   -3.5052   -1.3372 H       1  UNL1        0.0622
     35 H          -4.4971   -0.3579   -0.8367 H       1  UNL1        0.0391
     36 H          -5.3684   -1.3464    0.3385 H       1  UNL1        0.0391
     37 H          -4.6375   -2.1236   -1.0469 H       1  UNL1        0.0391
     38 H           3.6793   -2.5189   -0.7221 H       1  UNL1        0.0655
     39 H           0.4062    5.5342   -0.0036 H       1  UNL1        0.0660
     40 H          -0.3080    4.4055    1.1550 H       1  UNL1        0.0660
     41 H          -1.1474    4.7799   -0.3876 H       1  UNL1        0.0660
     42 H           6.0667   -0.1957    0.3213 H       1  UNL1        0.0660
     43 H           5.2615   -0.9855   -1.0312 H       1  UNL1        0.0660
     44 H           5.2997   -1.7534    0.6170 H       1  UNL1        0.0660
@<TRIPOS>BOND
     1     1     8    1
     2     1    14    1
     3     2    15    1
     4     2    22    1
     5     3    20    1
     6     3    23    1
     7     4     7    1
     8     4    12    1
     9     4    19    1
    10     5     6    1
    11     5     8    1
    12     5     9    1
    13     5    10    1
    14     6     7    1
    15     6    16    2
    16     7    11    1
    17     7    24    1
    18     8    15    1
    19     8    25    1
    20     9    12    1
    21     9    26    1
    22     9    27    1
    23    10    13   ar
    24    10    14   ar
    25    11    13    1
    26    11    28    1
    27    11    29    1
    28    12    30    1
    29    12    31    1
    30    13    18   ar
    31    14    20   ar
    32    15    17    2
    33    16    17    1
    34    16    32    1
    35    17    33    1
    36    18    21   ar
    37    18    34    1
    38    19    35    1
    39    19    36    1
    40    19    37    1
    41    20    21   ar
    42    21    38    1
    43    22    39    1
    44    22    40    1
    45    22    41    1
    46    23    42    1
    47    23    43    1
    48    23    44    1
@<TRIPOS>MOLECULE
71752500
 44 48 0 0 0
SMALL
GASTEIGER

@<TRIPOS>ATOM
      1 O           1.4976    1.2187    0.8916 O.3     1  UNL1       -0.4760
      2 O           0.5439    3.5760   -0.5537 O.2     1  UNL1       -0.4956
      3 O           4.0306   -0.0992    0.4118 O.3     1  UNL1       -0.4914
      4 N          -3.2884   -1.5407    0.4773 N.3     1  UNL1       -0.2984
      5 C          -0.7049    0.1889    0.6549 C.3     1  UNL1        0.0673
      6 C          -1.6026   -0.0559   -0.5018 C.2     1  UNL1       -0.0375
      7 C          -2.0605   -1.4954   -0.3082 C.3     1  UNL1        0.0366
      8 C           0.0716    1.5204    0.7223 C.3     1  UNL1        0.1701
      9 C          -1.5985   -0.1102    1.9279 C.3     1  UNL1       -0.0227
     10 C           0.4499   -0.7343    0.3053 C.ar    1  UNL1        0.0154
     11 C          -1.0193   -2.4113   -0.9948 C.3     1  UNL1       -0.0078
     12 C          -3.1241   -0.5157    1.5815 C.3     1  UNL1        0.0004
     13 C           0.3684   -1.9417   -0.4488 C.ar    1  UNL1       -0.0377
     14 C           1.6466   -0.0908    0.5111 C.ar    1  UNL1        0.1674
     15 C          -0.1594    2.3890   -0.5038 C.2     1  UNL1        0.1388
     16 C          -1.7657    0.8208   -1.4985 C.2     1  UNL1       -0.0568
     17 C          -1.0239    2.0667   -1.4844 C.2     1  UNL1       -0.0204
     18 C           1.5641   -2.5739   -0.7786 C.ar    1  UNL1       -0.0545
     19 C          -4.4880   -1.3213   -0.3144 C.3     1  UNL1       -0.0122
     20 C           2.8383   -0.7101    0.1934 C.ar    1  UNL1        0.1619
     21 C           2.7892   -1.9706   -0.4280 C.ar    1  UNL1       -0.0160
     22 C          -0.1746    4.6112    0.0877 C.3     1  UNL1        0.0785
     23 C           5.2095   -0.8205    0.0503 C.3     1  UNL1        0.0790
     24 H          -2.6153   -1.5776   -1.2603 H       1  UNL1        0.0512
     25 H          -0.2214    2.0963    1.6075 H       1  UNL1        0.0828
     26 H          -1.6395    0.7589    2.5941 H       1  UNL1        0.0290
     27 H          -1.1502   -0.9340    2.4981 H       1  UNL1        0.0290
     28 H          -1.0017   -2.3371   -2.0906 H       1  UNL1        0.0332
     29 H          -1.1774   -3.4532   -0.6964 H       1  UNL1        0.0332
     30 H          -3.6005   -0.9025    2.4892 H       1  UNL1        0.0427
     31 H          -3.6455    0.4129    1.3108 H       1  UNL1        0.0427
     32 H          -2.3788    0.5973   -2.3636 H       1  UNL1        0.0619
     33 H          -1.1659    2.7270   -2.3345 H       1  UNL1        0.0652
     34 H           1.5625   -3.5052   -1.3372 H       1  UNL1        0.0622
     35 H          -4.6375   -2.1236   -1.0469 H       1  UNL1        0.0391
     36 H          -4.4971   -0.3579   -0.8367 H       1  UNL1        0.0391
     37 H          -5.3684   -1.3464    0.3385 H       1  UNL1        0.0391
     38 H           3.6793   -2.5189   -0.7221 H       1  UNL1        0.0655
     39 H          -0.3080    4.4055    1.1550 H       1  UNL1        0.0660
     40 H          -1.1474    4.7799   -0.3876 H       1  UNL1        0.0660
     41 H           0.4062    5.5342   -0.0036 H       1  UNL1        0.0660
     42 H           6.0667   -0.1957    0.3213 H       1  UNL1        0.0660
     43 H           5.2615   -0.9855   -1.0312 H       1  UNL1        0.0660
     44 H           5.2997   -1.7534    0.6170 H       1  UNL1        0.0660
@<TRIPOS>BOND
     1     1     8    1
     2     1    14    1
     3     2    15    1
     4     2    22    1
     5     3    20    1
     6     3    23    1
     7     4     7    1
     8     4    12    1
     9     4    19    1
    10     5     6    1
    11     5     8    1
    12     5     9    1
    13     5    10    1
    14     6     7    1
    15     6    16    2
    16     7    11    1
    17     7    24    1
    18     8    15    1
    19     8    25    1
    20     9    12    1
    21     9    26    1
    22     9    27    1
    23    10    13   ar
    24    10    14   ar
    25    11    13    1
    26    11    28    1
    27    11    29    1
    28    12    30    1
    29    12    31    1
    30    13    18   ar
    31    14    20   ar
    32    15    17    2
    33    16    17    1
    34    16    32    1
    35    17    33    1
    36    18    21   ar
    37    18    34    1
    38    19    35    1
    39    19    36    1
    40    19    37    1
    41    20    21   ar
    42    21    38    1
    43    22    39    1
    44    22    40    1
    45    22    41    1
    46    23    42    1
    47    23    43    1
    48    23    44    1
@<TRIPOS>MOLECULE
133568470
 43 47 0 0 0
SMALL
GASTEIGER

@<TRIPOS>ATOM
      1 O          -1.8180    1.1966   -0.4511 O.3     1  UNL1       -0.4517
      2 O          -0.7918    3.8630    0.3944 O.2     1  UNL1       -0.4918
      3 O          -4.2292   -0.5272   -0.4271 O.3     1  UNL1       -0.4914
      4 O           4.9447   -1.6314   -1.1136 O.2     1  UNL1       -0.2793
      5 N           2.8447   -1.1128   -0.2101 N.am    1  UNL1       -0.3000
      6 C           0.4004    0.3584   -0.1569 C.3     1  UNL1        0.0702
      7 C           1.2834    0.3156    1.0943 C.3     1  UNL1        0.0133
      8 C           2.0347   -1.0401    1.0184 C.3     1  UNL1        0.0372
      9 C           1.1980    0.2282   -1.4781 C.3     1  UNL1       -0.0197
     10 C          -0.6139   -0.7013   -0.0103 C.ar    1  UNL1        0.0160
     11 C           1.0057   -2.2505    1.0777 C.3     1  UNL1       -0.0080
     12 C          -0.4942    1.5617   -0.1777 C.2     1  UNL1        0.1583
     13 C           2.1535   -0.9624   -1.4861 C.3     1  UNL1        0.0160
     14 C          -0.3722   -1.9575    0.5084 C.ar    1  UNL1       -0.0377
     15 C           2.0021    1.6497    1.1772 C.2     1  UNL1       -0.0743
     16 C          -1.8760   -0.1803   -0.2736 C.ar    1  UNL1        0.1739
     17 C          -0.0244    2.7299    0.2926 C.2     1  UNL1        0.1585
     18 C           1.3552    2.7787    0.7974 C.2     1  UNL1       -0.0202
     19 C          -1.4809   -2.7948    0.5976 C.ar    1  UNL1       -0.0545
     20 C          -2.9805   -0.9895   -0.1811 C.ar    1  UNL1        0.1624
     21 C           4.1918   -1.4374   -0.1658 C.2     1  UNL1        0.2028
     22 C          -2.7673   -2.3186    0.2326 C.ar    1  UNL1       -0.0160
     23 C          -0.6565    4.6783   -0.7576 C.3     1  UNL1        0.0789
     24 C          -5.3093   -1.4562   -0.3015 C.3     1  UNL1        0.0790
     25 H           0.6767    0.2716    2.0148 H       1  UNL1        0.0374
     26 H           2.7104   -1.1331    1.8772 H       1  UNL1        0.0510
     27 H           1.7937    1.1369   -1.6386 H       1  UNL1        0.0293
     28 H           0.5273    0.1521   -2.3444 H       1  UNL1        0.0293
     29 H           0.8590   -2.4918    2.1388 H       1  UNL1        0.0331
     30 H           1.4272   -3.1371    0.5902 H       1  UNL1        0.0331
     31 H           1.6092   -1.8939   -1.6776 H       1  UNL1        0.0465
     32 H           2.8800   -0.8534   -2.2988 H       1  UNL1        0.0465
     33 H           3.0033    1.6961    1.5908 H       1  UNL1        0.0577
     34 H           1.8350    3.7469    0.8901 H       1  UNL1        0.0652
     35 H          -1.3782   -3.8034    0.9890 H       1  UNL1        0.0622
     36 H           4.5630   -1.5179    0.8688 H       1  UNL1        0.1253
     37 H          -3.5773   -3.0342    0.3435 H       1  UNL1        0.0655
     38 H          -1.2949    5.5574   -0.6290 H       1  UNL1        0.0660
     39 H          -0.9869    4.1489   -1.6583 H       1  UNL1        0.0660
     40 H           0.3753    5.0249   -0.8816 H       1  UNL1        0.0660
     41 H          -6.2292   -0.9199   -0.5556 H       1  UNL1        0.0660
     42 H          -5.4140   -1.8082    0.7301 H       1  UNL1        0.0660
     43 H          -5.2097   -2.2836   -1.0121 H       1  UNL1        0.0660
@<TRIPOS>BOND
     1     1    12    1
     2     1    16    1
     3     2    17    1
     4     2    23    1
     5     3    20    1
     6     3    24    1
     7     4    21    2
     8     5     8    1
     9     5    13    1
    10     5    21   am
    11     6     7    1
    12     6     9    1
    13     6    10    1
    14     6    12    1
    15     7     8    1
    16     7    15    1
    17     7    25    1
    18     8    11    1
    19     8    26    1
    20     9    13    1
    21     9    27    1
    22     9    28    1
    23    10    14   ar
    24    10    16   ar
    25    11    14    1
    26    11    29    1
    27    11    30    1
    28    12    17    2
    29    13    31    1
    30    13    32    1
    31    14    19   ar
    32    15    18    2
    33    15    33    1
    34    16    20   ar
    35    17    18    1
    36    18    34    1
    37    19    22   ar
    38    19    35    1
    39    20    22   ar
    40    21    36    1
    41    22    37    1
    42    23    38    1
    43    23    39    1
    44    23    40    1
    45    24    41    1
    46    24    42    1
    47    24    43    1
@<TRIPOS>MOLECULE
154733669
 51 56 0 0 0
SMALL
GASTEIGER

@<TRIPOS>ATOM
      1 O           0.9577   -1.9184   -0.6370 O.3     1  UNL1       -0.4833
      2 O          -3.4616   -1.2206   -1.4815 O.2     1  UNL1       -0.2974
      3 O           3.8567   -2.0354   -0.4950 O.3     1  UNL1       -0.4914
      4 N          -1.4178    2.8282   -0.3894 N.3     1  UNL1       -0.3012
      5 C          -0.3465    0.1489   -0.4477 C.3     1  UNL1        0.0486
      6 C          -1.0506    0.7127    0.8195 C.3     1  UNL1        0.0184
      7 C          -0.4010   -1.3909   -0.5187 C.3     1  UNL1        0.1177
      8 C          -0.7543    2.2466    0.8013 C.3     1  UNL1        0.0241
      9 C          -1.1659   -1.9119    0.7374 C.3     1  UNL1        0.0246
     10 C          -2.5427    0.2640    0.7649 C.3     1  UNL1       -0.0313
     11 C          -0.8278    0.8257   -1.7460 C.3     1  UNL1       -0.0261
     12 C          -2.6070   -1.3018    0.7454 C.3     1  UNL1        0.0277
     13 C           1.1107    0.3396   -0.2558 C.ar    1  UNL1        0.0118
     14 C          -0.5040   -0.0091    2.0643 C.2     1  UNL1       -0.0789
     15 C           0.8032    2.5489    0.8616 C.3     1  UNL1       -0.0108
     16 C          -0.8480    2.3580   -1.6560 C.3     1  UNL1       -0.0001
     17 C          -0.5214   -1.3516    1.9926 C.2     1  UNL1       -0.0801
     18 C           1.6982    1.4693    0.2885 C.ar    1  UNL1       -0.0383
     19 C           1.7908   -0.8426   -0.4464 C.ar    1  UNL1        0.1664
     20 C          -3.4190   -1.8153   -0.4055 C.2     1  UNL1        0.1341
     21 C          -1.4995    4.2848   -0.3490 C.3     1  UNL1       -0.0124
     22 C           3.0847    1.4493    0.4342 C.ar    1  UNL1       -0.0546
     23 C           3.1597   -0.8890   -0.2988 C.ar    1  UNL1        0.1618
     24 C           3.8115    0.2831    0.1141 C.ar    1  UNL1       -0.0160
     25 C          -4.1798   -3.0940   -0.1800 C.3     1  UNL1       -0.0058
     26 C           5.2737   -1.9785   -0.3170 C.3     1  UNL1        0.0790
     27 H          -0.9186   -1.7312   -1.4229 H       1  UNL1        0.0748
     28 H          -1.2172    2.6925    1.6922 H       1  UNL1        0.0474
     29 H          -1.1713   -3.0060    0.7662 H       1  UNL1        0.0386
     30 H          -3.0781    0.7129   -0.0772 H       1  UNL1        0.0281
     31 H          -3.0636    0.6266    1.6625 H       1  UNL1        0.0281
     32 H          -1.8387    0.4918   -1.9941 H       1  UNL1        0.0288
     33 H          -0.1979    0.5304   -2.5956 H       1  UNL1        0.0288
     34 H          -3.1298   -1.6125    1.6618 H       1  UNL1        0.0384
     35 H          -0.1229    0.5248    2.9253 H       1  UNL1        0.0575
     36 H           1.0634    2.6483    1.9244 H       1  UNL1        0.0329
     37 H           1.0507    3.5084    0.3970 H       1  UNL1        0.0329
     38 H           0.1642    2.7527   -1.8072 H       1  UNL1        0.0427
     39 H          -1.4493    2.7344   -2.4933 H       1  UNL1        0.0427
     40 H          -0.1627   -1.9904    2.7885 H       1  UNL1        0.0573
     41 H          -1.9609    4.6226    0.5854 H       1  UNL1        0.0391
     42 H          -0.5247    4.7721   -0.4491 H       1  UNL1        0.0391
     43 H          -2.1406    4.6497   -1.1594 H       1  UNL1        0.0391
     44 H           3.6075    2.3090    0.8445 H       1  UNL1        0.0622
     45 H           4.8852    0.3416    0.2653 H       1  UNL1        0.0655
     46 H          -4.9229   -2.9459    0.6074 H       1  UNL1        0.0306
     47 H          -4.6946   -3.3817   -1.1010 H       1  UNL1        0.0306
     48 H          -3.4881   -3.8927    0.0983 H       1  UNL1        0.0306
     49 H           5.7391   -1.2849   -1.0253 H       1  UNL1        0.0660
     50 H           5.5368   -1.7483    0.7209 H       1  UNL1        0.0660
     51 H           5.6678   -2.9761   -0.5360 H       1  UNL1        0.0660
@<TRIPOS>BOND
     1     1     7    1
     2     1    19    1
     3     2    20    2
     4     3    23    1
     5     3    26    1
     6     4     8    1
     7     4    16    1
     8     4    21    1
     9     5     6    1
    10     5     7    1
    11     5    11    1
    12     5    13    1
    13     6     8    1
    14     6    10    1
    15     6    14    1
    16     7     9    1
    17     7    27    1
    18     8    15    1
    19     8    28    1
    20     9    12    1
    21     9    17    1
    22     9    29    1
    23    10    12    1
    24    10    30    1
    25    10    31    1
    26    11    16    1
    27    11    32    1
    28    11    33    1
    29    12    20    1
    30    12    34    1
    31    13    18   ar
    32    13    19   ar
    33    14    17    2
    34    14    35    1
    35    15    18    1
    36    15    36    1
    37    15    37    1
    38    16    38    1
    39    16    39    1
    40    17    40    1
    41    18    22   ar
    42    19    23   ar
    43    20    25    1
    44    21    41    1
    45    21    42    1
    46    21    43    1
    47    22    24   ar
    48    22    44    1
    49    23    24   ar
    50    24    45    1
    51    25    46    1
    52    25    47    1
    53    25    48    1
    54    26    49    1
    55    26    50    1
    56    26    51    1
@<TRIPOS>MOLECULE
11865354
 45 49 0 0 0
SMALL
GASTEIGER

@<TRIPOS>ATOM
      1 O          -1.6336   -0.5681    1.1020 O.3     1  UNL1       -0.4760
      2 O          -1.5736   -3.3379    0.3283 O.2     1  UNL1       -0.4956
      3 O          -3.6252    1.4880    0.6295 O.3     1  UNL1       -0.4914
      4 N           3.4693    0.7605    0.1942 N.4     1  UNL1        0.2386
      5 C           0.7541   -0.3332    0.5747 C.3     1  UNL1        0.0746
      6 C           2.5183    0.4646   -0.9747 C.3     1  UNL1        0.0060
      7 C           1.5836   -0.6755   -0.6324 C.2     1  UNL1       -0.0070
      8 C           1.6688   -0.0106    1.7781 C.3     1  UNL1        0.0050
      9 C          -0.3778   -1.3161    0.9798 C.3     1  UNL1        0.1704
     10 C          -0.0794    0.8242    0.1598 C.ar    1  UNL1        0.0159
     11 C           2.7469    1.0394    1.4954 C.3     1  UNL1       -0.0303
     12 C           1.7129    1.7743   -1.3077 C.3     1  UNL1        0.0200
     13 C           0.3438    1.8626   -0.6603 C.ar    1  UNL1       -0.0339
     14 C          -1.3911    0.6555    0.5361 C.ar    1  UNL1        0.1674
     15 C           1.3811   -1.7953   -1.3395 C.2     1  UNL1       -0.0530
     16 C          -0.5338   -2.4816    0.0280 C.2     1  UNL1        0.1388
     17 C           4.5459   -0.2858    0.3431 C.3     1  UNL1       -0.0425
     18 C           0.3031   -2.7002   -1.0028 C.2     1  UNL1       -0.0203
     19 C          -0.5892    2.8565   -0.9545 C.ar    1  UNL1       -0.0544
     20 C          -2.3296    1.6237    0.2519 C.ar    1  UNL1        0.1619
     21 C          -1.9121    2.7456   -0.4794 C.ar    1  UNL1       -0.0160
     22 C          -2.4717   -3.4369   -0.7594 C.3     1  UNL1        0.0785
     23 C          -4.5109    0.8463   -0.2902 C.3     1  UNL1        0.0790
     24 H           3.1662    0.2278   -1.8269 H       1  UNL1        0.0904
     25 H           2.1605   -0.9356    2.1085 H       1  UNL1        0.0330
     26 H           1.0711    0.3378    2.6309 H       1  UNL1        0.0330
     27 H           3.9722    1.6249   -0.0480 H       1  UNL1        0.2037
     28 H          -0.1805   -1.7371    1.9748 H       1  UNL1        0.0828
     29 H           2.3157    2.0422    1.4104 H       1  UNL1        0.0815
     30 H           3.4943    1.0724    2.2955 H       1  UNL1        0.0815
     31 H           1.5458    1.7795   -2.3935 H       1  UNL1        0.0372
     32 H           2.2949    2.6718   -1.0683 H       1  UNL1        0.0372
     33 H           1.9576   -2.0082   -2.2330 H       1  UNL1        0.0620
     34 H           4.0877   -1.2374    0.6222 H       1  UNL1        0.0778
     35 H           5.0701   -0.3691   -0.6125 H       1  UNL1        0.0778
     36 H           5.2406    0.0539    1.1157 H       1  UNL1        0.0778
     37 H           0.1907   -3.5663   -1.6472 H       1  UNL1        0.0652
     38 H          -0.3174    3.6982   -1.5855 H       1  UNL1        0.0622
     39 H          -2.6285    3.5247   -0.7306 H       1  UNL1        0.0655
     40 H          -3.3829   -3.9245   -0.3988 H       1  UNL1        0.0660
     41 H          -2.0638   -4.0610   -1.5613 H       1  UNL1        0.0660
     42 H          -2.7560   -2.4517   -1.1477 H       1  UNL1        0.0660
     43 H          -5.5062    0.8118    0.1610 H       1  UNL1        0.0660
     44 H          -4.1800   -0.1778   -0.4898 H       1  UNL1        0.0660
     45 H          -4.5681    1.4130   -1.2249 H       1  UNL1        0.0660
@<TRIPOS>UNITY_ATOM_ATTR
4 1
charge 1
@<TRIPOS>BOND
     1     1     9    1
     2     1    14    1
     3     2    16    1
     4     2    22    1
     5     3    20    1
     6     3    23    1
     7     4     6    1
     8     4    11    1
     9     4    17    1
    10     4    27    1
    11     5     7    1
    12     5     8    1
    13     5     9    1
    14     5    10    1
    15     6     7    1
    16     6    12    1
    17     6    24    1
    18     7    15    2
    19     8    11    1
    20     8    25    1
    21     8    26    1
    22     9    16    1
    23     9    28    1
    24    10    13   ar
    25    10    14   ar
    26    11    29    1
    27    11    30    1
    28    12    13    1
    29    12    31    1
    30    12    32    1
    31    13    19   ar
    32    14    20   ar
    33    15    18    1
    34    15    33    1
    35    16    18    2
    36    17    34    1
    37    17    35    1
    38    17    36    1
    39    18    37    1
    40    19    21   ar
    41    19    38    1
    42    20    21   ar
    43    21    39    1
    44    22    40    1
    45    22    41    1
    46    22    42    1
    47    23    43    1
    48    23    44    1
    49    23    45    1
@<TRIPOS>MOLECULE
10075
 48 52 0 0 0
SMALL
GASTEIGER

@<TRIPOS>ATOM
      1 O          -1.3334   -0.0493   -1.2614 O.3     1  UNL1       -0.4763
      2 O          -2.4995    2.4141   -0.2254 O.3     1  UNL1       -0.4269
      3 O          -2.4123   -2.6733   -0.5940 O.3     1  UNL1       -0.4914
      4 O          -3.3123    0.4602    0.7462 O.2     1  UNL1       -0.2507
      5 N           3.7838    0.6812   -0.4188 N.3     1  UNL1       -0.3018
      6 C           0.8928    0.7142   -0.6673 C.3     1  UNL1        0.0492
      7 C           1.6408    1.5269    0.3951 C.3     1  UNL1       -0.0079
      8 C           2.9127    0.7059    0.7806 C.3     1  UNL1        0.0181
      9 C          -0.5389    1.1658   -1.0227 C.3     1  UNL1        0.1671
     10 C           1.7899    0.5563   -1.9130 C.3     1  UNL1       -0.0262
     11 C           0.5561   -0.6208   -0.1071 C.ar    1  UNL1        0.0116
     12 C           2.5621   -0.7119    1.3627 C.3     1  UNL1       -0.0113
     13 C           0.7605    1.9075    1.6005 C.3     1  UNL1       -0.0260
     14 C           3.1853    0.0062   -1.5748 C.3     1  UNL1       -0.0002
     15 C           1.3231   -1.3466    0.7847 C.ar    1  UNL1       -0.0383
     16 C          -0.6924   -1.0217   -0.5328 C.ar    1  UNL1        0.1671
     17 C          -1.2116    1.9948    0.0480 C.2     1  UNL1        0.1461
     18 C          -0.6294    2.3215    1.2112 C.2     1  UNL1       -0.0417
     19 C           5.1295    0.1857   -0.1491 C.3     1  UNL1       -0.0125
     20 C           0.8288   -2.5929    1.1694 C.ar    1  UNL1       -0.0546
     21 C          -1.1947   -2.2519   -0.1736 C.ar    1  UNL1        0.1618
     22 C          -0.4134   -3.0477    0.6768 C.ar    1  UNL1       -0.0160
     23 C          -3.4698    1.5365    0.1843 C.2     1  UNL1        0.3090
     24 C          -2.8417   -3.9673   -0.1648 C.3     1  UNL1        0.0790
     25 C          -4.8159    2.1067   -0.1546 C.3     1  UNL1        0.0336
     26 H           1.9599    2.4783   -0.0590 H       1  UNL1        0.0329
     27 H           3.4472    1.2650    1.5604 H       1  UNL1        0.0469
     28 H          -0.5434    1.7454   -1.9543 H       1  UNL1        0.0825
     29 H           1.9079    1.5395   -2.3888 H       1  UNL1        0.0287
     30 H           1.3234   -0.0972   -2.6615 H       1  UNL1        0.0287
     31 H           2.3890   -0.5892    2.4402 H       1  UNL1        0.0329
     32 H           3.4046   -1.4039    1.2671 H       1  UNL1        0.0329
     33 H           1.2416    2.7402    2.1283 H       1  UNL1        0.0312
     34 H           0.6804    1.0922    2.3274 H       1  UNL1        0.0312
     35 H           3.1287   -1.0771   -1.4114 H       1  UNL1        0.0427
     36 H           3.8234    0.1504   -2.4557 H       1  UNL1        0.0427
     37 H          -1.1871    2.9030    1.9409 H       1  UNL1        0.0606
     38 H           5.5779    0.7152    0.6986 H       1  UNL1        0.0391
     39 H           5.7803    0.3736   -1.0106 H       1  UNL1        0.0391
     40 H           5.1554   -0.8883    0.0598 H       1  UNL1        0.0391
     41 H           1.3851   -3.2123    1.8679 H       1  UNL1        0.0622
     42 H          -0.7273   -4.0274    1.0241 H       1  UNL1        0.0655
     43 H          -3.8270   -4.1450   -0.6076 H       1  UNL1        0.0660
     44 H          -2.9645   -4.0067    0.9227 H       1  UNL1        0.0660
     45 H          -2.1748   -4.7535   -0.5342 H       1  UNL1        0.0660
     46 H          -4.8911    2.2639   -1.2336 H       1  UNL1        0.0342
     47 H          -4.9669    3.0457    0.3838 H       1  UNL1        0.0342
     48 H          -5.5950    1.4010    0.1480 H       1  UNL1        0.0342
@<TRIPOS>BOND
     1     1     9    1
     2     1    16    1
     3     2    17    1
     4     2    23    1
     5     3    21    1
     6     3    24    1
     7     4    23    2
     8     5     8    1
     9     5    14    1
    10     5    19    1
    11     6     7    1
    12     6     9    1
    13     6    10    1
    14     6    11    1
    15     7     8    1
    16     7    13    1
    17     7    26    1
    18     8    12    1
    19     8    27    1
    20     9    17    1
    21     9    28    1
    22    10    14    1
    23    10    29    1
    24    10    30    1
    25    11    15   ar
    26    11    16   ar
    27    12    15    1
    28    12    31    1
    29    12    32    1
    30    13    18    1
    31    13    33    1
    32    13    34    1
    33    14    35    1
    34    14    36    1
    35    15    20   ar
    36    16    21   ar
    37    17    18    2
    38    18    37    1
    39    19    38    1
    40    19    39    1
    41    19    40    1
    42    20    22   ar
    43    20    41    1
    44    21    22   ar
    45    22    42    1
    46    23    25    1
    47    24    43    1
    48    24    44    1
    49    24    45    1
    50    25    46    1
    51    25    47    1
    52    25    48    1
@<TRIPOS>MOLECULE
5486617
 46 50 0 0 0
SMALL
GASTEIGER

@<TRIPOS>ATOM
      1 O          -1.6885    0.6385   -1.0718 O.3     1  UNL1       -0.4763
      2 O          -1.9178    3.2578    0.1884 O.2     1  UNL1       -0.4959
      3 O          -3.5543   -1.5253   -0.4963 O.3     1  UNL1       -0.4914
      4 N           3.4088   -0.4347   -0.5279 N.3     1  UNL1       -0.3018
      5 C           0.6879    0.5725   -0.5813 C.3     1  UNL1        0.0492
      6 C           1.7089    1.0043    0.4769 C.3     1  UNL1       -0.0079
      7 C           2.6477   -0.2191    0.7260 C.3     1  UNL1        0.0181
      8 C          -0.5237    1.4992   -0.8124 C.3     1  UNL1        0.1664
      9 C           1.4269    0.2269   -1.8912 C.3     1  UNL1       -0.0262
     10 C          -0.0523   -0.6161   -0.0828 C.ar    1  UNL1        0.0116
     11 C           1.8676   -1.4830    1.2421 C.3     1  UNL1       -0.0113
     12 C           1.0585    1.5571    1.7592 C.3     1  UNL1       -0.0260
     13 C           2.5707   -0.7791   -1.6808 C.3     1  UNL1       -0.0002
     14 C           0.4644   -1.6237    0.7099 C.ar    1  UNL1       -0.0383
     15 C          -1.3798   -0.5462   -0.4483 C.ar    1  UNL1        0.1671
     16 C          -0.8343    2.4157    0.3494 C.2     1  UNL1        0.1346
     17 C          -0.1278    2.4373    1.4892 C.2     1  UNL1       -0.0424
     18 C           4.5211   -1.3673   -0.3791 C.3     1  UNL1       -0.0125
     19 C          -0.4019   -2.6628    1.0495 C.ar    1  UNL1       -0.0546
     20 C          -2.2493   -1.5654   -0.1326 C.ar    1  UNL1        0.1618
     21 C          -1.7443   -2.6402    0.6136 C.ar    1  UNL1       -0.0160
     22 C          -1.5151    4.4879   -0.3801 C.3     1  UNL1        0.0785
     23 C          -4.3736   -2.6344   -0.1195 C.3     1  UNL1        0.0790
     24 H           2.3085    1.8298    0.0616 H       1  UNL1        0.0329
     25 H           3.3709    0.0674    1.5013 H       1  UNL1        0.0469
     26 H          -0.3692    2.1108   -1.7094 H       1  UNL1        0.0825
     27 H           1.8471    1.1503   -2.3125 H       1  UNL1        0.0287
     28 H           0.7375   -0.1735   -2.6457 H       1  UNL1        0.0287
     29 H           1.7912   -1.3964    2.3343 H       1  UNL1        0.0329
     30 H           2.4250   -2.4047    1.0484 H       1  UNL1        0.0329
     31 H           1.8125    2.1390    2.3038 H       1  UNL1        0.0312
     32 H           0.7412    0.7589    2.4385 H       1  UNL1        0.0312
     33 H           2.1616   -1.7920   -1.5807 H       1  UNL1        0.0427
     34 H           3.1824   -0.7841   -2.5918 H       1  UNL1        0.0427
     35 H          -0.4288    3.1082    2.2899 H       1  UNL1        0.0606
     36 H           5.1563   -1.0855    0.4678 H       1  UNL1        0.0391
     37 H           5.1603   -1.3371   -1.2688 H       1  UNL1        0.0391
     38 H           4.1948   -2.4025   -0.2387 H       1  UNL1        0.0391
     39 H          -0.0561   -3.4851    1.6702 H       1  UNL1        0.0622
     40 H          -2.3531   -3.4854    0.9203 H       1  UNL1        0.0655
     41 H          -2.4007    5.1233   -0.4774 H       1  UNL1        0.0660
     42 H          -1.0923    4.3485   -1.3808 H       1  UNL1        0.0660
     43 H          -0.7971    5.0105    0.2617 H       1  UNL1        0.0660
     44 H          -5.3793   -2.4401   -0.5059 H       1  UNL1        0.0660
     45 H          -4.4564   -2.7179    0.9692 H       1  UNL1        0.0660
     46 H          -4.0245   -3.5647   -0.5800 H       1  UNL1        0.0660
@<TRIPOS>BOND
     1     1     8    1
     2     1    15    1
     3     2    16    1
     4     2    22    1
     5     3    20    1
     6     3    23    1
     7     4     7    1
     8     4    13    1
     9     4    18    1
    10     5     6    1
    11     5     8    1
    12     5     9    1
    13     5    10    1
    14     6     7    1
    15     6    12    1
    16     6    24    1
    17     7    11    1
    18     7    25    1
    19     8    16    1
    20     8    26    1
    21     9    13    1
    22     9    27    1
    23     9    28    1
    24    10    14   ar
    25    10    15   ar
    26    11    14    1
    27    11    29    1
    28    11    30    1
    29    12    17    1
    30    12    31    1
    31    12    32    1
    32    13    33    1
    33    13    34    1
    34    14    19   ar
    35    15    20   ar
    36    16    17    2
    37    17    35    1
    38    18    36    1
    39    18    37    1
    40    18    38    1
    41    19    21   ar
    42    19    39    1
    43    20    21   ar
    44    21    40    1
    45    22    41    1
    46    22    42    1
    47    22    43    1
    48    23    44    1
    49    23    45    1
    50    23    46    1
@<TRIPOS>MOLECULE
408120
 44 48 0 0 0
SMALL
GASTEIGER

@<TRIPOS>ATOM
      1 O           1.6014    1.0890   -0.6128 O.3     1  UNL1       -0.4760
      2 O           0.7179    3.6409    0.3738 O.2     1  UNL1       -0.4956
      3 O           3.9886   -0.4401    0.0088 O.3     1  UNL1       -0.4914
      4 N          -3.0544   -1.5658   -0.5684 N.3     1  UNL1       -0.2984
      5 C          -0.6847    0.2059   -0.4743 C.3     1  UNL1        0.0673
      6 C          -1.7288    0.1834    0.6082 C.2     1  UNL1       -0.0375
      7 C          -2.3770   -1.1899    0.6984 C.3     1  UNL1        0.0366
      8 C           0.1877    1.4803   -0.6225 C.3     1  UNL1        0.1701
      9 C          -1.3262   -0.2015   -1.8177 C.3     1  UNL1       -0.0227
     10 C           0.3638   -0.7443   -0.0236 C.ar    1  UNL1        0.0154
     11 C          -1.2884   -2.2724    1.0706 C.3     1  UNL1       -0.0078
     12 C          -2.1546   -1.4958   -1.7314 C.3     1  UNL1        0.0004
     13 C           0.1278   -1.9403    0.6421 C.ar    1  UNL1       -0.0377
     14 C           1.6213   -0.2108   -0.1810 C.ar    1  UNL1        0.1674
     15 C          -0.0899    2.5238    0.4373 C.2     1  UNL1        0.1388
     16 C          -1.9155    1.2240    1.4318 C.2     1  UNL1       -0.0568
     17 C          -1.0772    2.4005    1.3434 C.2     1  UNL1       -0.0204
     18 C           1.2443   -2.6938    1.0032 C.ar    1  UNL1       -0.0545
     19 C          -4.2757   -0.7886   -0.7851 C.3     1  UNL1       -0.0122
     20 C           2.7376   -0.9375    0.1720 C.ar    1  UNL1        0.1619
     21 C           2.5407   -2.2021    0.7466 C.ar    1  UNL1       -0.0160
     22 C           0.2037    4.6328   -0.4814 C.3     1  UNL1        0.0785
     23 C           4.6377   -0.6976   -1.2380 C.3     1  UNL1        0.0790
     24 H          -3.1253   -1.2123    1.5017 H       1  UNL1        0.0512
     25 H           0.0113    1.9417   -1.6025 H       1  UNL1        0.0828
     26 H          -0.5567   -0.3325   -2.5899 H       1  UNL1        0.0290
     27 H          -1.9798    0.6109   -2.1636 H       1  UNL1        0.0290
     28 H          -1.5719   -3.2590    0.6835 H       1  UNL1        0.0332
     29 H          -1.2786   -2.3564    2.1662 H       1  UNL1        0.0332
     30 H          -2.7208   -1.6288   -2.6622 H       1  UNL1        0.0427
     31 H          -1.4746   -2.3559   -1.7012 H       1  UNL1        0.0427
     32 H          -2.6386    1.1800    2.2388 H       1  UNL1        0.0619
     33 H          -1.2535    3.1834    2.0745 H       1  UNL1        0.0652
     34 H           1.1255   -3.6417    1.5208 H       1  UNL1        0.0622
     35 H          -4.0852    0.2806   -0.9258 H       1  UNL1        0.0391
     36 H          -4.9613   -0.9063    0.0614 H       1  UNL1        0.0391
     37 H          -4.8103   -1.1574   -1.6676 H       1  UNL1        0.0391
     38 H           3.3990   -2.7984    1.0482 H       1  UNL1        0.0655
     39 H           0.8719    5.4986   -0.4443 H       1  UNL1        0.0660
     40 H          -0.7906    4.9627   -0.1602 H       1  UNL1        0.0660
     41 H           0.1637    4.2860   -1.5192 H       1  UNL1        0.0660
     42 H           5.6295   -0.2384   -1.2089 H       1  UNL1        0.0660
     43 H           4.0697   -0.2562   -2.0629 H       1  UNL1        0.0660
     44 H           4.7530   -1.7750   -1.3933 H       1  UNL1        0.0660
@<TRIPOS>BOND
     1     1     8    1
     2     1    14    1
     3     2    15    1
     4     2    22    1
     5     3    20    1
     6     3    23    1
     7     4     7    1
     8     4    12    1
     9     4    19    1
    10     5     6    1
    11     5     8    1
    12     5     9    1
    13     5    10    1
    14     6     7    1
    15     6    16    2
    16     7    11    1
    17     7    24    1
    18     8    15    1
    19     8    25    1
    20     9    12    1
    21     9    26    1
    22     9    27    1
    23    10    13   ar
    24    10    14   ar
    25    11    13    1
    26    11    28    1
    27    11    29    1
    28    12    30    1
    29    12    31    1
    30    13    18   ar
    31    14    20   ar
    32    15    17    2
    33    16    17    1
    34    16    32    1
    35    17    33    1
    36    18    21   ar
    37    18    34    1
    38    19    35    1
    39    19    36    1
    40    19    37    1
    41    20    21   ar
    42    21    38    1
    43    22    39    1
    44    22    40    1
    45    22    41    1
    46    23    42    1
    47    23    43    1
    48    23    44    1
@<TRIPOS>MOLECULE
11508377
 48 52 0 0 0
SMALL
GASTEIGER

@<TRIPOS>ATOM
      1 O          -1.0842   -1.1557   -0.9990 O.3     1  UNL1       -0.4763
      2 O          -3.3476    0.0506    0.3879 O.3     1  UNL1       -0.4269
      3 O          -0.2588   -3.9083   -0.5130 O.3     1  UNL1       -0.4914
      4 O          -3.9669    2.1370   -0.4405 O.2     1  UNL1       -0.2507
      5 N           2.6103    2.5292   -0.5503 N.3     1  UNL1       -0.3018
      6 C           0.2848    0.7936   -0.5322 C.3     1  UNL1        0.0492
      7 C           0.5255    1.8649    0.5370 C.3     1  UNL1       -0.0079
      8 C           2.0725    1.9834    0.7189 C.3     1  UNL1        0.0181
      9 C          -1.1608    0.2846   -0.7082 C.3     1  UNL1        0.1671
     10 C           0.9172    1.2514   -1.8634 C.3     1  UNL1       -0.0262
     11 C           0.9012   -0.4830   -0.0855 C.ar    1  UNL1        0.0116
     12 C           2.7310    0.6322    1.1799 C.3     1  UNL1       -0.0113
     13 C          -0.2336    1.5947    1.8498 C.3     1  UNL1       -0.0260
     14 C           2.3915    1.6608   -1.7114 C.3     1  UNL1       -0.0002
     15 C           2.0623   -0.6118    0.6533 C.ar    1  UNL1       -0.0383
     16 C           0.1046   -1.5521   -0.4361 C.ar    1  UNL1        0.1671
     17 C          -2.0455    0.4995    0.4990 C.2     1  UNL1        0.1461
     18 C          -1.6283    1.0824    1.6325 C.2     1  UNL1       -0.0417
     19 C           4.0034    2.9533   -0.4560 C.3     1  UNL1       -0.0125
     20 C           2.4777   -1.9101    0.9496 C.ar    1  UNL1       -0.0546
     21 C           0.5005   -2.8417   -0.1627 C.ar    1  UNL1        0.1618
     22 C           1.7094   -3.0160    0.5266 C.ar    1  UNL1       -0.0160
     23 C          -4.2196    0.9873   -0.1038 C.2     1  UNL1        0.3090
     24 C           0.2424   -5.2057   -0.1834 C.3     1  UNL1        0.0790
     25 C          -5.5890    0.3795   -0.1889 C.3     1  UNL1        0.0336
     26 H           0.1408    2.8246    0.1570 H       1  UNL1        0.0329
     27 H           2.2603    2.7313    1.5010 H       1  UNL1        0.0469
     28 H          -1.6342    0.7641   -1.5740 H       1  UNL1        0.0825
     29 H           0.3525    2.1138   -2.2431 H       1  UNL1        0.0287
     30 H           0.8441    0.4697   -2.6306 H       1  UNL1        0.0287
     31 H           2.6661    0.5940    2.2756 H       1  UNL1        0.0329
     32 H           3.7979    0.6030    0.9373 H       1  UNL1        0.0329
     33 H          -0.2870    2.5331    2.4155 H       1  UNL1        0.0312
     34 H           0.2936    0.8817    2.4925 H       1  UNL1        0.0312
     35 H           3.0227    0.7652   -1.6569 H       1  UNL1        0.0427
     36 H           2.6872    2.1890   -2.6266 H       1  UNL1        0.0427
     37 H          -2.3186    1.1793    2.4667 H       1  UNL1        0.0606
     38 H           4.1506    3.6232    0.3982 H       1  UNL1        0.0391
     39 H           4.2853    3.5233   -1.3485 H       1  UNL1        0.0391
     40 H           4.6999    2.1143   -0.3629 H       1  UNL1        0.0391
     41 H           3.3829   -2.0784    1.5270 H       1  UNL1        0.0622
     42 H           2.1008   -3.9921    0.7972 H       1  UNL1        0.0655
     43 H          -0.4845   -5.9369   -0.5515 H       1  UNL1        0.0660
     44 H           0.3165   -5.3414    0.9008 H       1  UNL1        0.0660
     45 H           1.1912   -5.4093   -0.6911 H       1  UNL1        0.0660
     46 H          -5.9147    0.0582    0.8038 H       1  UNL1        0.0342
     47 H          -5.5772   -0.4645   -0.8830 H       1  UNL1        0.0342
     48 H          -6.2953    1.1276   -0.5604 H       1  UNL1        0.0342
@<TRIPOS>BOND
     1     1     9    1
     2     1    16    1
     3     2    17    1
     4     2    23    1
     5     3    21    1
     6     3    24    1
     7     4    23    2
     8     5     8    1
     9     5    14    1
    10     5    19    1
    11     6     7    1
    12     6     9    1
    13     6    10    1
    14     6    11    1
    15     7     8    1
    16     7    13    1
    17     7    26    1
    18     8    12    1
    19     8    27    1
    20     9    17    1
    21     9    28    1
    22    10    14    1
    23    10    29    1
    24    10    30    1
    25    11    15   ar
    26    11    16   ar
    27    12    15    1
    28    12    31    1
    29    12    32    1
    30    13    18    1
    31    13    33    1
    32    13    34    1
    33    14    35    1
    34    14    36    1
    35    15    20   ar
    36    16    21   ar
    37    17    18    2
    38    18    37    1
    39    19    38    1
    40    19    39    1
    41    19    40    1
    42    20    22   ar
    43    20    41    1
    44    21    22   ar
    45    22    42    1
    46    23    25    1
    47    24    43    1
    48    24    44    1
    49    24    45    1
    50    25    46    1
    51    25    47    1
    52    25    48    1
