@<TRIPOS>MOLECULE
33741
 44 45 0 0 0
SMALL
GASTEIGER

@<TRIPOS>ATOM
      1 O          -1.2421    1.4059    1.6782 O.3     1  UNL1       -0.3836
      2 O           3.5426   -0.4131   -1.6077 O.3     1  UNL1       -0.4951
      3 N          -2.3974   -2.3616    0.0088 N.3     1  UNL1       -0.3080
      4 C          -1.5979   -0.0487   -0.2112 C.3     1  UNL1        0.0048
      5 C          -0.6980    1.0757    0.3899 C.3     1  UNL1        0.0950
      6 C          -3.0394    0.4487   -0.4414 C.3     1  UNL1       -0.0461
      7 C          -0.7842    2.3543   -0.4812 C.3     1  UNL1       -0.0195
      8 C          -3.0802    1.7118   -1.2951 C.3     1  UNL1       -0.0526
      9 C          -2.2237    2.8207   -0.6986 C.3     1  UNL1       -0.0501
     10 C          -1.6466   -1.3078    0.6675 C.3     1  UNL1        0.0041
     11 C           0.7637    0.6314    0.5226 C.ar    1  UNL1       -0.0124
     12 C           1.4939    0.3076   -0.6172 C.ar    1  UNL1       -0.0141
     13 C           1.3514    0.5554    1.7820 C.ar    1  UNL1       -0.0556
     14 C          -2.4472   -3.5662    0.8432 C.3     1  UNL1       -0.0130
     15 C          -1.8140   -2.6794   -1.2981 C.3     1  UNL1       -0.0130
     16 C           2.8237   -0.0960   -0.4964 C.ar    1  UNL1        0.1204
     17 C           2.6810    0.1520    1.9027 C.ar    1  UNL1       -0.0580
     18 C           3.4173   -0.1735    0.7636 C.ar    1  UNL1       -0.0199
     19 C           4.8969   -0.8170   -1.4117 C.3     1  UNL1        0.0788
     20 H          -1.1682   -0.2798   -1.1919 H       1  UNL1        0.0344
     21 H          -3.5286    0.6499    0.5204 H       1  UNL1        0.0269
     22 H          -3.6455   -0.3123   -0.9455 H       1  UNL1        0.0269
     23 H          -0.3267    2.1932   -1.4649 H       1  UNL1        0.0296
     24 H          -0.2269    3.1721   -0.0057 H       1  UNL1        0.0296
     25 H          -4.1155    2.0584   -1.3901 H       1  UNL1        0.0265
     26 H          -2.7274    1.4800   -2.3077 H       1  UNL1        0.0265
     27 H          -2.2294    3.6888   -1.3677 H       1  UNL1        0.0266
     28 H          -2.6578    3.1526    0.2522 H       1  UNL1        0.0266
     29 H          -2.1192   -1.0652    1.6278 H       1  UNL1        0.0430
     30 H          -0.6310   -1.6550    0.8938 H       1  UNL1        0.0430
     31 H          -0.8516    2.2477    1.9695 H       1  UNL1        0.2106
     32 H           1.0480    0.3569   -1.6066 H       1  UNL1        0.0658
     33 H           0.8111    0.7945    2.6926 H       1  UNL1        0.0621
     34 H          -2.9045   -3.3426    1.8136 H       1  UNL1        0.0391
     35 H          -1.4510   -3.9881    1.0193 H       1  UNL1        0.0391
     36 H          -3.0714   -4.3348    0.3739 H       1  UNL1        0.0391
     37 H          -2.0392   -1.9175   -2.0502 H       1  UNL1        0.0391
     38 H          -2.2595   -3.5985   -1.6993 H       1  UNL1        0.0391
     39 H          -0.7302   -2.8360   -1.2475 H       1  UNL1        0.0391
     40 H           3.1423    0.0901    2.8842 H       1  UNL1        0.0619
     41 H           4.4445   -0.4794    0.9298 H       1  UNL1        0.0654
     42 H           5.3167   -1.0307   -2.4001 H       1  UNL1        0.0660
     43 H           4.9605   -1.7431   -0.8303 H       1  UNL1        0.0660
     44 H           5.4981   -0.0115   -0.9765 H       1  UNL1        0.0660
@<TRIPOS>BOND
     1     1     5    1
     2     1    31    1
     3     2    16    1
     4     2    19    1
     5     3    10    1
     6     3    14    1
     7     3    15    1
     8     4     5    1
     9     4     6    1
    10     4    10    1
    11     4    20    1
    12     5     7    1
    13     5    11    1
    14     6     8    1
    15     6    21    1
    16     6    22    1
    17     7     9    1
    18     7    23    1
    19     7    24    1
    20     8     9    1
    21     8    25    1
    22     8    26    1
    23     9    27    1
    24     9    28    1
    25    10    29    1
    26    10    30    1
    27    11    12   ar
    28    11    13   ar
    29    12    16   ar
    30    12    32    1
    31    13    17   ar
    32    13    33    1
    33    14    34    1
    34    14    35    1
    35    14    36    1
    36    15    37    1
    37    15    38    1
    38    15    39    1
    39    16    18   ar
    40    17    18   ar
    41    17    40    1
    42    18    41    1
    43    19    42    1
    44    19    43    1
    45    19    44    1
@<TRIPOS>MOLECULE
63015
 44 45 0 0 0
SMALL
GASTEIGER

@<TRIPOS>ATOM
      1 O          -0.3868   -1.6935   -1.7139 O.3     1  UNL1       -0.3836
      2 O           3.8013    1.0922   -0.6836 O.3     1  UNL1       -0.4951
      3 N          -2.0568    2.3090    0.5400 N.3     1  UNL1       -0.3080
      4 C          -1.3669    0.2140   -0.5420 C.3     1  UNL1        0.0048
      5 C          -0.5790   -1.1302   -0.4011 C.3     1  UNL1        0.0950
      6 C          -2.8031   -0.0152   -1.0603 C.3     1  UNL1       -0.0461
      7 C          -1.4041   -2.1610    0.4099 C.3     1  UNL1       -0.0195
      8 C          -3.5790   -1.0412   -0.2404 C.3     1  UNL1       -0.0526
      9 C          -2.8260   -2.3594   -0.1211 C.3     1  UNL1       -0.0501
     10 C          -1.4085    1.0296    0.7611 C.3     1  UNL1        0.0041
     11 C           0.8444   -0.9029    0.1190 C.ar    1  UNL1       -0.0124
     12 C           1.6837    0.0019   -0.5276 C.ar    1  UNL1       -0.0141
     13 C           1.2947   -1.6017    1.2371 C.ar    1  UNL1       -0.0556
     14 C          -1.3359    3.0925   -0.4683 C.3     1  UNL1       -0.0130
     15 C          -2.1538    3.0686    1.7906 C.3     1  UNL1       -0.0130
     16 C           2.9792    0.2090   -0.0538 C.ar    1  UNL1        0.1204
     17 C           2.5902   -1.3946    1.7107 C.ar    1  UNL1       -0.0580
     18 C           3.4324   -0.4893    1.0653 C.ar    1  UNL1       -0.0199
     19 C           3.2740    1.7722   -1.8217 C.3     1  UNL1        0.0788
     20 H          -0.8595    0.7802   -1.3301 H       1  UNL1        0.0344
     21 H          -2.7407   -0.3821   -2.0938 H       1  UNL1        0.0269
     22 H          -3.3767    0.9159   -1.1196 H       1  UNL1        0.0269
     23 H          -1.4785   -1.8534    1.4605 H       1  UNL1        0.0296
     24 H          -0.9155   -3.1440    0.3890 H       1  UNL1        0.0296
     25 H          -4.5518   -1.2222   -0.7126 H       1  UNL1        0.0265
     26 H          -3.7897   -0.6445    0.7591 H       1  UNL1        0.0265
     27 H          -3.3744   -3.0384    0.5418 H       1  UNL1        0.0266
     28 H          -2.7843   -2.8446   -1.1040 H       1  UNL1        0.0266
     29 H          -0.3968    1.1909    1.1520 H       1  UNL1        0.0430
     30 H          -1.9481    0.4703    1.5341 H       1  UNL1        0.0430
     31 H           0.1086   -2.5253   -1.6186 H       1  UNL1        0.2106
     32 H           1.2994    0.5085   -1.4046 H       1  UNL1        0.0658
     33 H           0.6835   -2.3173    1.7751 H       1  UNL1        0.0621
     34 H          -1.4978    2.7137   -1.4816 H       1  UNL1        0.0391
     35 H          -0.2597    3.1472   -0.2669 H       1  UNL1        0.0391
     36 H          -1.7182    4.1206   -0.4952 H       1  UNL1        0.0391
     37 H          -2.7006    4.0047    1.6318 H       1  UNL1        0.0391
     38 H          -1.1679    3.3084    2.2054 H       1  UNL1        0.0391
     39 H          -2.7165    2.5024    2.5412 H       1  UNL1        0.0391
     40 H           2.9441   -1.9382    2.5819 H       1  UNL1        0.0619
     41 H           4.4405   -0.3324    1.4390 H       1  UNL1        0.0654
     42 H           3.0376    1.0756   -2.6332 H       1  UNL1        0.0660
     43 H           4.0601    2.4382   -2.1924 H       1  UNL1        0.0660
     44 H           2.4207    2.4049   -1.5540 H       1  UNL1        0.0660
@<TRIPOS>BOND
     1     1     5    1
     2     1    31    1
     3     2    16    1
     4     2    19    1
     5     3    10    1
     6     3    14    1
     7     3    15    1
     8     4     5    1
     9     4     6    1
    10     4    10    1
    11     4    20    1
    12     5     7    1
    13     5    11    1
    14     6     8    1
    15     6    21    1
    16     6    22    1
    17     7     9    1
    18     7    23    1
    19     7    24    1
    20     8     9    1
    21     8    25    1
    22     8    26    1
    23     9    27    1
    24     9    28    1
    25    10    29    1
    26    10    30    1
    27    11    12   ar
    28    11    13   ar
    29    12    16   ar
    30    12    32    1
    31    13    17   ar
    32    13    33    1
    33    14    34    1
    34    14    35    1
    35    14    36    1
    36    15    37    1
    37    15    38    1
    38    15    39    1
    39    16    18   ar
    40    17    18   ar
    41    17    40    1
    42    18    41    1
    43    19    42    1
    44    19    43    1
    45    19    44    1
@<TRIPOS>MOLECULE
667511
 44 45 0 0 0
SMALL
GASTEIGER

@<TRIPOS>ATOM
      1 O          -0.4853    1.2534   -1.6539 O.3     1  UNL1       -0.3836
      2 O           4.2908    0.1825   -0.9437 O.3     1  UNL1       -0.4951
      3 N          -2.8659   -2.0466   -0.3319 N.3     1  UNL1       -0.3080
      4 C          -1.7437    0.0991    0.0823 C.3     1  UNL1        0.0048
      5 C          -0.5094    1.0005   -0.2407 C.3     1  UNL1        0.0950
      6 C          -3.0779    0.8384   -0.1408 C.3     1  UNL1       -0.0461
      7 C          -0.6208    2.3719    0.4700 C.3     1  UNL1       -0.0195
      8 C          -3.1300    2.1646    0.6093 C.3     1  UNL1       -0.0526
      9 C          -1.9620    3.0681    0.2389 C.3     1  UNL1       -0.0501
     10 C          -1.7553   -1.2020   -0.7334 C.3     1  UNL1        0.0041
     11 C           0.8133    0.3347    0.1664 C.ar    1  UNL1       -0.0124
     12 C           1.9622    0.5649   -0.5841 C.ar    1  UNL1       -0.0141
     13 C           0.8542   -0.4939    1.2837 C.ar    1  UNL1       -0.0556
     14 C          -2.7674   -2.3974    1.0883 C.3     1  UNL1       -0.0130
     15 C          -2.9173   -3.2637   -1.1476 C.3     1  UNL1       -0.0130
     16 C           3.1638   -0.0394   -0.2138 C.ar    1  UNL1        0.1204
     17 C           2.0555   -1.0981    1.6540 C.ar    1  UNL1       -0.0580
     18 C           3.2103   -0.8708    0.9054 C.ar    1  UNL1       -0.0199
     19 C           5.4847   -0.4662   -0.5084 C.3     1  UNL1        0.0788
     20 H          -1.7211   -0.1047    1.1548 H       1  UNL1        0.0344
     21 H          -3.9299    0.2343    0.1906 H       1  UNL1        0.0269
     22 H          -3.2253    1.0284   -1.2118 H       1  UNL1        0.0269
     23 H           0.1757    3.0423    0.1214 H       1  UNL1        0.0296
     24 H          -0.4774    2.2447    1.5514 H       1  UNL1        0.0296
     25 H          -3.1194    1.9751    1.6897 H       1  UNL1        0.0265
     26 H          -4.0733    2.6758    0.3853 H       1  UNL1        0.0265
     27 H          -2.0466    3.3650   -0.8135 H       1  UNL1        0.0266
     28 H          -2.0046    3.9883    0.8325 H       1  UNL1        0.0266
     29 H          -0.8069   -1.7422   -0.6300 H       1  UNL1        0.0430
     30 H          -1.8638   -0.9590   -1.7980 H       1  UNL1        0.0430
     31 H          -0.2040    0.4442   -2.1133 H       1  UNL1        0.2106
     32 H           1.9538    1.2213   -1.4499 H       1  UNL1        0.0658
     33 H          -0.0004   -0.6798    1.9220 H       1  UNL1        0.0621
     34 H          -3.0208   -1.5595    1.7440 H       1  UNL1        0.0391
     35 H          -1.7775   -2.7841    1.3566 H       1  UNL1        0.0391
     36 H          -3.5019   -3.1732    1.3387 H       1  UNL1        0.0391
     37 H          -3.0203   -3.0113   -2.2089 H       1  UNL1        0.0391
     38 H          -3.7929   -3.8676   -0.8846 H       1  UNL1        0.0391
     39 H          -2.0202   -3.8815   -1.0243 H       1  UNL1        0.0391
     40 H           2.0932   -1.7396    2.5299 H       1  UNL1        0.0619
     41 H           4.1093   -1.3701    1.2501 H       1  UNL1        0.0654
     42 H           6.2805   -0.1786   -1.2032 H       1  UNL1        0.0660
     43 H           5.3926   -1.5564   -0.5614 H       1  UNL1        0.0660
     44 H           5.7893   -0.1231    0.4862 H       1  UNL1        0.0660
@<TRIPOS>BOND
     1     1     5    1
     2     1    31    1
     3     2    16    1
     4     2    19    1
     5     3    10    1
     6     3    14    1
     7     3    15    1
     8     4     5    1
     9     4     6    1
    10     4    10    1
    11     4    20    1
    12     5     7    1
    13     5    11    1
    14     6     8    1
    15     6    21    1
    16     6    22    1
    17     7     9    1
    18     7    23    1
    19     7    24    1
    20     8     9    1
    21     8    25    1
    22     8    26    1
    23     9    27    1
    24     9    28    1
    25    10    29    1
    26    10    30    1
    27    11    12   ar
    28    11    13   ar
    29    12    16   ar
    30    12    32    1
    31    13    17   ar
    32    13    33    1
    33    14    34    1
    34    14    35    1
    35    14    36    1
    36    15    37    1
    37    15    38    1
    38    15    39    1
    39    16    18   ar
    40    17    18   ar
    41    17    40    1
    42    18    41    1
    43    19    42    1
    44    19    43    1
    45    19    44    1
@<TRIPOS>MOLECULE
22908336
 41 42 0 0 0
SMALL
GASTEIGER

@<TRIPOS>ATOM
      1 O          -3.7516    0.8322   -1.3233 O.3     1  UNL1       -0.4951
      2 N           2.7860    2.0064    0.1485 N.3     1  UNL1       -0.3078
      3 C           1.5008    0.0351   -0.5576 C.3     1  UNL1       -0.0028
      4 C           2.7434   -0.5402   -1.2677 C.3     1  UNL1       -0.0448
      5 C           3.3497   -1.7124   -0.5029 C.3     1  UNL1       -0.0490
      6 C           0.5653   -1.0604   -0.0716 C.2     1  UNL1       -0.0397
      7 C           1.9110    0.9428    0.6097 C.3     1  UNL1        0.0051
      8 C           2.3306   -2.8344   -0.3166 C.3     1  UNL1       -0.0342
      9 C           0.9508   -2.3478    0.0151 C.2     1  UNL1       -0.0800
     10 C          -0.8296   -0.6951    0.2623 C.ar    1  UNL1       -0.0184
     11 C          -1.6428   -0.0956   -0.6994 C.ar    1  UNL1       -0.0125
     12 C           2.0178    3.0590   -0.5232 C.3     1  UNL1       -0.0130
     13 C           3.5485    2.5746    1.2642 C.3     1  UNL1       -0.0130
     14 C          -1.3313   -0.9513    1.5384 C.ar    1  UNL1       -0.0541
     15 C          -2.9577    0.2476   -0.3850 C.ar    1  UNL1        0.1207
     16 C          -2.6462   -0.6082    1.8528 C.ar    1  UNL1       -0.0577
     17 C          -3.4593   -0.0088    0.8910 C.ar    1  UNL1       -0.0199
     18 C          -5.0855    1.1567   -0.9345 C.3     1  UNL1        0.0788
     19 H           0.9679    0.6265   -1.3109 H       1  UNL1        0.0361
     20 H           3.5097    0.2196   -1.4525 H       1  UNL1        0.0272
     21 H           2.4408   -0.8985   -2.2619 H       1  UNL1        0.0272
     22 H           3.7137   -1.3751    0.4748 H       1  UNL1        0.0268
     23 H           4.2223   -2.0990   -1.0422 H       1  UNL1        0.0268
     24 H           1.0304    1.3538    1.1221 H       1  UNL1        0.0432
     25 H           2.4273    0.3285    1.3599 H       1  UNL1        0.0432
     26 H           2.2696   -3.4298   -1.2356 H       1  UNL1        0.0308
     27 H           2.6798   -3.5067    0.4754 H       1  UNL1        0.0308
     28 H           0.2438   -3.1135    0.3273 H       1  UNL1        0.0575
     29 H          -1.2710    0.1004   -1.7024 H       1  UNL1        0.0660
     30 H           1.2589    3.5015    0.1326 H       1  UNL1        0.0391
     31 H           2.6863    3.8619   -0.8554 H       1  UNL1        0.0391
     32 H           1.5240    2.6908   -1.4272 H       1  UNL1        0.0391
     33 H           4.2275    3.3572    0.9077 H       1  UNL1        0.0391
     34 H           2.8958    3.0053    2.0322 H       1  UNL1        0.0391
     35 H           4.1763    1.8078    1.7319 H       1  UNL1        0.0391
     36 H          -0.7115   -1.4118    2.3040 H       1  UNL1        0.0624
     37 H          -3.0354   -0.8067    2.8472 H       1  UNL1        0.0619
     38 H          -4.4700    0.2321    1.2025 H       1  UNL1        0.0654
     39 H          -5.5729    1.6131   -1.8022 H       1  UNL1        0.0660
     40 H          -5.1007    1.9009   -0.1311 H       1  UNL1        0.0660
     41 H          -5.6601    0.2595   -0.6804 H       1  UNL1        0.0660
@<TRIPOS>BOND
     1     1    15    1
     2     1    18    1
     3     2     7    1
     4     2    12    1
     5     2    13    1
     6     3     4    1
     7     3     6    1
     8     3     7    1
     9     3    19    1
    10     4     5    1
    11     4    20    1
    12     4    21    1
    13     5     8    1
    14     5    22    1
    15     5    23    1
    16     6     9    2
    17     6    10    1
    18     7    24    1
    19     7    25    1
    20     8     9    1
    21     8    26    1
    22     8    27    1
    23     9    28    1
    24    10    11   ar
    25    10    14   ar
    26    11    15   ar
    27    11    29    1
    28    12    30    1
    29    12    31    1
    30    12    32    1
    31    13    33    1
    32    13    34    1
    33    13    35    1
    34    14    16   ar
    35    14    36    1
    36    15    17   ar
    37    16    17   ar
    38    16    37    1
    39    17    38    1
    40    18    39    1
    41    18    40    1
    42    18    41    1
@<TRIPOS>MOLECULE
12149038
 41 42 0 0 0
SMALL
GASTEIGER

@<TRIPOS>ATOM
      1 O          -1.4663    0.8713    1.7471 O.3     1  UNL1       -0.3836
      2 O           3.5129   -0.0386   -1.6262 O.3     1  UNL1       -0.4951
      3 N          -2.3102   -2.6217   -0.5772 N.3     1  UNL1       -0.3186
      4 C          -1.6723   -0.2577   -0.3731 C.3     1  UNL1        0.0045
      5 C          -0.8693    0.8038    0.4417 C.3     1  UNL1        0.0950
      6 C          -1.0254    2.2043   -0.2025 C.3     1  UNL1       -0.0195
      7 C          -3.1395    0.1756   -0.5671 C.3     1  UNL1       -0.0461
      8 C          -2.4887    2.6051   -0.3890 C.3     1  UNL1       -0.0501
      9 C          -3.2496    1.5609   -1.1952 C.3     1  UNL1       -0.0526
     10 C          -1.6523   -1.6493    0.2771 C.3     1  UNL1        0.0014
     11 C           0.6167    0.4408    0.5494 C.ar    1  UNL1       -0.0124
     12 C           1.3953    0.3659   -0.6017 C.ar    1  UNL1       -0.0141
     13 C           1.1777    0.1888    1.7979 C.ar    1  UNL1       -0.0556
     14 C           2.7471    0.0362   -0.5035 C.ar    1  UNL1        0.1204
     15 C           2.5295   -0.1410    1.8961 C.ar    1  UNL1       -0.0580
     16 C          -2.3066   -3.9458    0.0342 C.3     1  UNL1       -0.0158
     17 C           3.3141   -0.2174    0.7453 C.ar    1  UNL1       -0.0199
     18 C           4.8871   -0.3811   -1.4532 C.3     1  UNL1        0.0788
     19 H          -1.2235   -0.3401   -1.3735 H       1  UNL1        0.0344
     20 H          -0.5343    2.2444   -1.1824 H       1  UNL1        0.0296
     21 H          -0.5389    2.9635    0.4241 H       1  UNL1        0.0296
     22 H          -3.6669    0.1733    0.3955 H       1  UNL1        0.0269
     23 H          -3.6717   -0.5287   -1.2170 H       1  UNL1        0.0269
     24 H          -2.5402    3.5728   -0.9010 H       1  UNL1        0.0266
     25 H          -2.9681    2.7395    0.5881 H       1  UNL1        0.0266
     26 H          -4.3044    1.8495   -1.2675 H       1  UNL1        0.0265
     27 H          -2.8567    1.5303   -2.2190 H       1  UNL1        0.0265
     28 H          -2.1510   -1.6114    1.2535 H       1  UNL1        0.0428
     29 H          -0.6179   -1.9674    0.4489 H       1  UNL1        0.0428
     30 H          -1.1441    1.6748    2.1905 H       1  UNL1        0.2106
     31 H          -1.8369   -2.6654   -1.4791 H       1  UNL1        0.1216
     32 H           0.9699    0.5540   -1.5835 H       1  UNL1        0.0658
     33 H           0.6001    0.2321    2.7158 H       1  UNL1        0.0621
     34 H           2.9702   -0.3398    2.8688 H       1  UNL1        0.0619
     35 H          -1.2871   -4.3110    0.1951 H       1  UNL1        0.0388
     36 H          -2.8172   -4.6526   -0.6271 H       1  UNL1        0.0388
     37 H          -2.8423   -3.9428    0.9890 H       1  UNL1        0.0388
     38 H           4.3561   -0.4791    0.8939 H       1  UNL1        0.0654
     39 H           5.3444   -0.3947   -2.4480 H       1  UNL1        0.0660
     40 H           5.0015   -1.3869   -1.0350 H       1  UNL1        0.0660
     41 H           5.4197    0.3754   -0.8670 H       1  UNL1        0.0660
@<TRIPOS>BOND
     1     1     5    1
     2     1    30    1
     3     2    14    1
     4     2    18    1
     5     3    10    1
     6     3    16    1
     7     3    31    1
     8     4     5    1
     9     4     7    1
    10     4    10    1
    11     4    19    1
    12     5     6    1
    13     5    11    1
    14     6     8    1
    15     6    20    1
    16     6    21    1
    17     7     9    1
    18     7    22    1
    19     7    23    1
    20     8     9    1
    21     8    24    1
    22     8    25    1
    23     9    26    1
    24     9    27    1
    25    10    28    1
    26    10    29    1
    27    11    12   ar
    28    11    13   ar
    29    12    14   ar
    30    12    32    1
    31    13    15   ar
    32    13    33    1
    33    14    17   ar
    34    15    17   ar
    35    15    34    1
    36    16    35    1
    37    16    36    1
    38    16    37    1
    39    17    38    1
    40    18    39    1
    41    18    40    1
    42    18    41    1
@<TRIPOS>MOLECULE
40424868
 38 39 0 0 0
SMALL
GASTEIGER

@<TRIPOS>ATOM
      1 O          -0.8966    0.7604   -1.8606 O.3     1  UNL1       -0.3836
      2 O           3.5944   -0.0945    2.1255 O.3     1  UNL1       -0.5068
      3 N          -2.3010   -2.4710    0.5657 N.3     1  UNL1       -0.3186
      4 C          -1.4429   -0.1826    0.3169 C.3     1  UNL1        0.0045
      5 C          -0.4938    0.7666   -0.4824 C.3     1  UNL1        0.0950
      6 C          -2.8821    0.3642    0.3933 C.3     1  UNL1       -0.0461
      7 C          -0.6102    2.2253    0.0246 C.3     1  UNL1       -0.0195
      8 C          -2.9248    1.7916    0.9267 C.3     1  UNL1       -0.0526
      9 C          -2.0517    2.7279    0.1025 C.3     1  UNL1       -0.0501
     10 C          -1.4823   -1.6040   -0.2627 C.3     1  UNL1        0.0014
     11 C           0.9741    0.3242   -0.3929 C.ar    1  UNL1       -0.0124
     12 C           1.6255    0.3148    0.8405 C.ar    1  UNL1       -0.0143
     13 C           1.6562   -0.0676   -1.5450 C.ar    1  UNL1       -0.0556
     14 C           2.9591   -0.0865    0.9219 C.ar    1  UNL1        0.1172
     15 C           2.9897   -0.4686   -1.4636 C.ar    1  UNL1       -0.0580
     16 C          -2.3548   -3.8222    0.0198 C.3     1  UNL1       -0.0158
     17 C           3.6411   -0.4783   -0.2302 C.ar    1  UNL1       -0.0202
     18 H          -1.0743   -0.2458    1.3510 H       1  UNL1        0.0344
     19 H          -3.4972   -0.2548    1.0571 H       1  UNL1        0.0269
     20 H          -3.3610    0.3298   -0.5931 H       1  UNL1        0.0269
     21 H          -0.0497    2.8962   -0.6398 H       1  UNL1        0.0296
     22 H          -0.1712    2.3329    1.0237 H       1  UNL1        0.0296
     23 H          -2.5887    1.8019    1.9709 H       1  UNL1        0.0265
     24 H          -3.9587    2.1551    0.9221 H       1  UNL1        0.0265
     25 H          -2.4699    2.8350   -0.9051 H       1  UNL1        0.0266
     26 H          -2.0638    3.7281    0.5512 H       1  UNL1        0.0266
     27 H          -0.4666   -2.0120   -0.3187 H       1  UNL1        0.0428
     28 H          -1.8838   -1.5783   -1.2832 H       1  UNL1        0.0428
     29 H          -1.8243    1.0370   -1.9244 H       1  UNL1        0.2106
     30 H          -1.9212   -2.5041    1.5113 H       1  UNL1        0.1216
     31 H           1.1096    0.6081    1.7507 H       1  UNL1        0.0658
     32 H           1.1854   -0.0781   -2.5232 H       1  UNL1        0.0621
     33 H           3.5209   -0.7744   -2.3603 H       1  UNL1        0.0619
     34 H          -2.7952   -3.8273   -0.9825 H       1  UNL1        0.0388
     35 H          -2.9855   -4.4475    0.6592 H       1  UNL1        0.0388
     36 H          -1.3603   -4.2782   -0.0222 H       1  UNL1        0.0388
     37 H           4.6800   -0.7930   -0.1803 H       1  UNL1        0.0654
     38 H           4.5093   -0.3986    1.9967 H       1  UNL1        0.2921
@<TRIPOS>BOND
     1     1     5    1
     2     1    29    1
     3     2    14    1
     4     2    38    1
     5     3    10    1
     6     3    16    1
     7     3    30    1
     8     4     5    1
     9     4     6    1
    10     4    10    1
    11     4    18    1
    12     5     7    1
    13     5    11    1
    14     6     8    1
    15     6    19    1
    16     6    20    1
    17     7     9    1
    18     7    21    1
    19     7    22    1
    20     8     9    1
    21     8    23    1
    22     8    24    1
    23     9    25    1
    24     9    26    1
    25    10    27    1
    26    10    28    1
    27    11    12   ar
    28    11    13   ar
    29    12    14   ar
    30    12    31    1
    31    13    15   ar
    32    13    32    1
    33    14    17   ar
    34    15    17   ar
    35    15    33    1
    36    16    34    1
    37    16    35    1
    38    16    36    1
    39    17    37    1
@<TRIPOS>MOLECULE
25181825
 44 45 0 0 0
SMALL
GASTEIGER

@<TRIPOS>ATOM
      1 O          -1.0889    1.4123    1.7372 O.3     1  UNL1       -0.3836
      2 O           3.6783   -0.6637   -1.4281 O.3     1  UNL1       -0.4951
      3 N          -2.4568   -2.2005   -0.1042 N.3     1  UNL1       -0.3080
      4 C          -1.4775    0.0503   -0.2139 C.3     1  UNL1        0.0048
      5 C          -0.5202    1.0829    0.4594 C.3     1  UNL1        0.0950
      6 C          -2.8670    0.6636   -0.4811 C.3     1  UNL1       -0.0461
      7 C          -0.4756    2.3915   -0.3692 C.3     1  UNL1       -0.0195
      8 C          -2.7785    1.9528   -1.2908 C.3     1  UNL1       -0.0526
      9 C          -1.8661    2.9732   -0.6233 C.3     1  UNL1       -0.0501
     10 C          -1.6559   -1.2286    0.6182 C.3     1  UNL1        0.0041
     11 C           0.8975    0.5245    0.6309 C.ar    1  UNL1       -0.0124
     12 C           1.6520    0.1796   -0.4905 C.ar    1  UNL1       -0.0141
     13 C           1.4328    0.3616    1.9086 C.ar    1  UNL1       -0.0556
     14 C          -3.0261   -3.1924    0.8132 C.3     1  UNL1       -0.0130
     15 C          -1.6590   -2.8704   -1.1360 C.3     1  UNL1       -0.0130
     16 C           2.9417   -0.3279   -0.3342 C.ar    1  UNL1        0.1204
     17 C           2.7225   -0.1461    2.0650 C.ar    1  UNL1       -0.0580
     18 C           3.4769   -0.4909    0.9436 C.ar    1  UNL1       -0.0199
     19 C           3.0700   -0.4718   -2.7046 C.3     1  UNL1        0.0788
     20 H          -1.0473   -0.2033   -1.1903 H       1  UNL1        0.0344
     21 H          -3.3813    0.8687    0.4666 H       1  UNL1        0.0269
     22 H          -3.5019   -0.0360   -1.0370 H       1  UNL1        0.0269
     23 H           0.0069    2.2290   -1.3406 H       1  UNL1        0.0296
     24 H           0.1220    3.1488    0.1552 H       1  UNL1        0.0296
     25 H          -3.7802    2.3801   -1.4131 H       1  UNL1        0.0265
     26 H          -2.4031    1.7277   -2.2967 H       1  UNL1        0.0265
     27 H          -1.7801    3.8607   -1.2607 H       1  UNL1        0.0266
     28 H          -2.3119    3.3059    0.3219 H       1  UNL1        0.0266
     29 H          -2.1571   -0.9549    1.5565 H       1  UNL1        0.0430
     30 H          -0.6904   -1.6614    0.9069 H       1  UNL1        0.0430
     31 H          -0.6449    2.2093    2.0741 H       1  UNL1        0.2106
     32 H           1.1957    0.3147   -1.4641 H       1  UNL1        0.0658
     33 H           0.8763    0.6123    2.8063 H       1  UNL1        0.0621
     34 H          -3.6767   -2.7076    1.5497 H       1  UNL1        0.0391
     35 H          -2.2501   -3.7507    1.3493 H       1  UNL1        0.0391
     36 H          -3.6527   -3.9069    0.2676 H       1  UNL1        0.0391
     37 H          -1.3114   -2.1738   -1.9042 H       1  UNL1        0.0391
     38 H          -2.2698   -3.6126   -1.6634 H       1  UNL1        0.0391
     39 H          -0.7883   -3.3876   -0.7163 H       1  UNL1        0.0391
     40 H           3.1392   -0.2746    3.0597 H       1  UNL1        0.0619
     41 H           4.4809   -0.8861    1.0717 H       1  UNL1        0.0654
     42 H           3.7971   -0.7891   -3.4593 H       1  UNL1        0.0660
     43 H           2.8552    0.5855   -2.8939 H       1  UNL1        0.0660
     44 H           2.1852   -1.1054   -2.8285 H       1  UNL1        0.0660
@<TRIPOS>BOND
     1     1     5    1
     2     1    31    1
     3     2    16    1
     4     2    19    1
     5     3    10    1
     6     3    14    1
     7     3    15    1
     8     4     5    1
     9     4     6    1
    10     4    10    1
    11     4    20    1
    12     5     7    1
    13     5    11    1
    14     6     8    1
    15     6    21    1
    16     6    22    1
    17     7     9    1
    18     7    23    1
    19     7    24    1
    20     8     9    1
    21     8    25    1
    22     8    26    1
    23     9    27    1
    24     9    28    1
    25    10    29    1
    26    10    30    1
    27    11    12   ar
    28    11    13   ar
    29    12    16   ar
    30    12    32    1
    31    13    17   ar
    32    13    33    1
    33    14    34    1
    34    14    35    1
    35    14    36    1
    36    15    37    1
    37    15    38    1
    38    15    39    1
    39    16    18   ar
    40    17    18   ar
    41    17    40    1
    42    18    41    1
    43    19    42    1
    44    19    43    1
    45    19    44    1
@<TRIPOS>MOLECULE
9861699
 45 46 0 0 0
SMALL
GASTEIGER

@<TRIPOS>ATOM
      1 O           0.3045    1.0164   -1.8627 O.3     1  UNL1       -0.3835
      2 O           3.4497   -1.7016   -0.0927 O.co2   1  UNL1       -0.7759
      3 O          -3.9272   -1.3743   -0.6319 O.3     1  UNL1       -0.4951
      4 N           2.2074   -2.0890    0.3705 N.3     1  UNL1        0.2131
      5 C           1.3806    0.2143    0.1401 C.3     1  UNL1        0.0320
      6 C           0.2817    1.1625   -0.4333 C.3     1  UNL1        0.0987
      7 C           2.7867    0.6318   -0.3362 C.3     1  UNL1       -0.0424
      8 C           0.6321    2.6393   -0.1216 C.3     1  UNL1       -0.0194
      9 C           1.1522   -1.2583   -0.2328 C.3     1  UNL1       -0.0273
     10 C           3.0891    2.0924   -0.0184 C.3     1  UNL1       -0.0524
     11 C           2.0328    3.0236   -0.5983 C.3     1  UNL1       -0.0501
     12 C          -1.1096    0.8280    0.1180 C.ar    1  UNL1       -0.0122
     13 C           2.0076   -3.5463    0.0196 C.3     1  UNL1       -0.0441
     14 C           2.2024   -1.9509    1.8763 C.3     1  UNL1       -0.0441
     15 C          -1.8925   -0.1316   -0.5171 C.ar    1  UNL1       -0.0140
     16 C          -1.5807    1.4857    1.2506 C.ar    1  UNL1       -0.0556
     17 C          -3.1579   -0.4363   -0.0151 C.ar    1  UNL1        0.1204
     18 C          -2.8459    1.1811    1.7525 C.ar    1  UNL1       -0.0580
     19 C          -3.6344    0.2200    1.1199 C.ar    1  UNL1       -0.0199
     20 C          -3.3787   -2.0066   -1.7874 C.3     1  UNL1        0.0788
     21 H           1.3388    0.3373    1.2291 H       1  UNL1        0.0384
     22 H           2.9395    0.4379   -1.4040 H       1  UNL1        0.0271
     23 H           3.5907    0.2003    0.2557 H       1  UNL1        0.0271
     24 H           0.6285    2.8479    0.9525 H       1  UNL1        0.0296
     25 H          -0.0912    3.3141   -0.5973 H       1  UNL1        0.0296
     26 H           1.2016   -1.4209   -1.3158 H       1  UNL1        0.0817
     27 H           0.2074   -1.6496    0.1543 H       1  UNL1        0.0817
     28 H           4.0741    2.3634   -0.4165 H       1  UNL1        0.0265
     29 H           3.1364    2.2343    1.0693 H       1  UNL1        0.0265
     30 H           2.2510    4.0560   -0.3017 H       1  UNL1        0.0266
     31 H           2.0761    2.9947   -1.6937 H       1  UNL1        0.0266
     32 H          -0.4145    1.5579   -2.2317 H       1  UNL1        0.2106
     33 H           2.8406   -4.1109    0.4473 H       1  UNL1        0.0776
     34 H           1.0494   -3.8646    0.4380 H       1  UNL1        0.0776
     35 H           2.0134   -3.6236   -1.0709 H       1  UNL1        0.0776
     36 H           1.1767   -2.0793    2.2310 H       1  UNL1        0.0776
     37 H           2.8483   -2.7387    2.2765 H       1  UNL1        0.0776
     38 H           2.6243   -0.9849    2.1591 H       1  UNL1        0.0776
     39 H          -1.4840   -0.6185   -1.3950 H       1  UNL1        0.0658
     40 H          -1.0080    2.2154    1.8079 H       1  UNL1        0.0621
     41 H          -3.2150    1.6859    2.6406 H       1  UNL1        0.0619
     42 H          -4.6183   -0.0145    1.5167 H       1  UNL1        0.0654
     43 H          -4.1246   -2.7226   -2.1479 H       1  UNL1        0.0660
     44 H          -2.4781   -2.5805   -1.5434 H       1  UNL1        0.0660
     45 H          -3.2086   -1.2887   -2.5970 H       1  UNL1        0.0660
@<TRIPOS>UNITY_ATOM_ATTR
2 1
charge -1
4 1
charge 1
@<TRIPOS>BOND
     1     1     6    1
     2     1    32    1
     3     2     4    1
     4     3    17    1
     5     3    20    1
     6     4     9    1
     7     4    13    1
     8     4    14    1
     9     5     6    1
    10     5     7    1
    11     5     9    1
    12     5    21    1
    13     6     8    1
    14     6    12    1
    15     7    10    1
    16     7    22    1
    17     7    23    1
    18     8    11    1
    19     8    24    1
    20     8    25    1
    21     9    26    1
    22     9    27    1
    23    10    11    1
    24    10    28    1
    25    10    29    1
    26    11    30    1
    27    11    31    1
    28    12    15   ar
    29    12    16   ar
    30    13    33    1
    31    13    34    1
    32    13    35    1
    33    14    36    1
    34    14    37    1
    35    14    38    1
    36    15    17   ar
    37    15    39    1
    38    16    18   ar
    39    16    40    1
    40    17    19   ar
    41    18    19   ar
    42    18    41    1
    43    19    42    1
    44    20    43    1
    45    20    44    1
    46    20    45    1
@<TRIPOS>MOLECULE
15645279
 41 42 0 0 0
SMALL
GASTEIGER

@<TRIPOS>ATOM
      1 O          -0.6020    1.4975   -1.6668 O.3     1  UNL1       -0.3836
      2 O           3.1726   -1.6984    1.7377 O.3     1  UNL1       -0.5068
      3 N          -2.2443   -2.1933   -0.3066 N.3     1  UNL1       -0.3080
      4 C          -1.3387    0.0292    0.1309 C.3     1  UNL1        0.0048
      5 C          -0.3046    1.1114   -0.3162 C.3     1  UNL1        0.0950
      6 C          -2.7630    0.6046    0.2610 C.3     1  UNL1       -0.0461
      7 C          -0.4156    2.3830    0.5606 C.3     1  UNL1       -0.0195
      8 C          -2.8033    1.8357    1.1593 C.3     1  UNL1       -0.0526
      9 C          -1.8436    2.9157    0.6791 C.3     1  UNL1       -0.0501
     10 C          -1.3767   -1.1793   -0.8159 C.3     1  UNL1        0.0041
     11 C           1.1386    0.5896   -0.2561 C.ar    1  UNL1       -0.0124
     12 C           1.5013   -0.3279    0.7252 C.ar    1  UNL1       -0.0143
     13 C           2.0742    1.0382   -1.1834 C.ar    1  UNL1       -0.0556
     14 C          -1.8033   -2.6741    1.0160 C.3     1  UNL1       -0.0130
     15 C          -2.3430   -3.3399   -1.2284 C.3     1  UNL1       -0.0130
     16 C           2.8122   -0.8015    0.7798 C.ar    1  UNL1        0.1172
     17 C           3.3851    0.5647   -1.1289 C.ar    1  UNL1       -0.0580
     18 C           3.7540   -0.3552   -0.1473 C.ar    1  UNL1       -0.0202
     19 H          -1.0721   -0.2673    1.1473 H       1  UNL1        0.0344
     20 H          -3.4548   -0.1364    0.6773 H       1  UNL1        0.0269
     21 H          -3.1496    0.8738   -0.7304 H       1  UNL1        0.0269
     22 H           0.2129    3.1820    0.1462 H       1  UNL1        0.0296
     23 H          -0.0380    2.1743    1.5706 H       1  UNL1        0.0296
     24 H          -2.5480    1.5482    2.1867 H       1  UNL1        0.0265
     25 H          -3.8227    2.2374    1.1855 H       1  UNL1        0.0265
     26 H          -2.1767    3.2969   -0.2938 H       1  UNL1        0.0266
     27 H          -1.8627    3.7622    1.3749 H       1  UNL1        0.0266
     28 H          -0.3692   -1.5792   -0.9809 H       1  UNL1        0.0430
     29 H          -1.7422   -0.8516   -1.7975 H       1  UNL1        0.0430
     30 H          -0.3372    0.7783   -2.2648 H       1  UNL1        0.2106
     31 H           0.8182   -0.6802    1.4883 H       1  UNL1        0.0658
     32 H           1.8204    1.7661   -1.9485 H       1  UNL1        0.0621
     33 H          -2.0003   -1.9471    1.8087 H       1  UNL1        0.0391
     34 H          -0.7420   -2.9479    1.0250 H       1  UNL1        0.0391
     35 H          -2.3776   -3.5623    1.3074 H       1  UNL1        0.0391
     36 H          -2.7018   -3.0104   -2.2098 H       1  UNL1        0.0391
     37 H          -3.0703   -4.0706   -0.8577 H       1  UNL1        0.0391
     38 H          -1.3781   -3.8421   -1.3620 H       1  UNL1        0.0391
     39 H           4.1197    0.9150   -1.8482 H       1  UNL1        0.0619
     40 H           4.7786   -0.7156   -0.1149 H       1  UNL1        0.0654
     41 H           4.1140   -1.9166    1.6268 H       1  UNL1        0.2921
@<TRIPOS>BOND
     1     1     5    1
     2     1    30    1
     3     2    16    1
     4     2    41    1
     5     3    10    1
     6     3    14    1
     7     3    15    1
     8     4     5    1
     9     4     6    1
    10     4    10    1
    11     4    19    1
    12     5     7    1
    13     5    11    1
    14     6     8    1
    15     6    20    1
    16     6    21    1
    17     7     9    1
    18     7    22    1
    19     7    23    1
    20     8     9    1
    21     8    24    1
    22     8    25    1
    23     9    26    1
    24     9    27    1
    25    10    28    1
    26    10    29    1
    27    11    12   ar
    28    11    13   ar
    29    12    16   ar
    30    12    31    1
    31    13    17   ar
    32    13    32    1
    33    14    33    1
    34    14    34    1
    35    14    35    1
    36    15    36    1
    37    15    37    1
    38    15    38    1
    39    16    18   ar
    40    17    18   ar
    41    17    39    1
    42    18    40    1
@<TRIPOS>MOLECULE
3056665
 41 42 0 0 0
SMALL
GASTEIGER

@<TRIPOS>ATOM
      1 O          -3.5442    0.5188    1.3543 O.3     1  UNL1       -0.4951
      2 N           1.9812    2.4100   -0.0583 N.3     1  UNL1       -0.3045
      3 C           3.2734   -0.2539   -0.0520 C.3     1  UNL1       -0.0300
      4 C           1.8038   -0.0141   -0.3325 C.2     1  UNL1       -0.0519
      5 C           3.6306   -1.7104    0.2433 C.3     1  UNL1       -0.0490
      6 C           2.6078   -2.3430    1.1741 C.3     1  UNL1       -0.0488
      7 C           1.2137   -2.2974    0.5506 C.3     1  UNL1       -0.0271
      8 C           0.8743   -0.9575   -0.0616 C.2     1  UNL1       -0.0396
      9 C           1.5161    1.3425   -0.9236 C.3     1  UNL1        0.0200
     10 C          -0.5612   -0.7601   -0.3297 C.ar    1  UNL1       -0.0184
     11 C          -1.3816   -0.2077    0.6517 C.ar    1  UNL1       -0.0125
     12 C          -1.0935   -1.1269   -1.5639 C.ar    1  UNL1       -0.0541
     13 C           1.3232    2.3459    1.2508 C.3     1  UNL1       -0.0127
     14 C           1.7479    3.7208   -0.6732 C.3     1  UNL1       -0.0127
     15 C          -2.7403   -0.0209    0.3977 C.ar    1  UNL1        0.1207
     16 C          -2.4523   -0.9403   -1.8179 C.ar    1  UNL1       -0.0577
     17 C          -3.2756   -0.3874   -0.8372 C.ar    1  UNL1       -0.0199
     18 C          -4.9234    0.6815    1.0273 C.3     1  UNL1        0.0788
     19 H           3.8746    0.0749   -0.9087 H       1  UNL1        0.0311
     20 H           3.5798    0.3564    0.8064 H       1  UNL1        0.0311
     21 H           3.6705   -2.2771   -0.6957 H       1  UNL1        0.0268
     22 H           4.6306   -1.7627    0.6884 H       1  UNL1        0.0268
     23 H           2.6029   -1.8090    2.1329 H       1  UNL1        0.0268
     24 H           2.8832   -3.3818    1.3880 H       1  UNL1        0.0268
     25 H           0.4848   -2.5622    1.3268 H       1  UNL1        0.0313
     26 H           1.1427   -3.0662   -0.2298 H       1  UNL1        0.0313
     27 H           0.4532    1.4754   -1.1563 H       1  UNL1        0.0472
     28 H           2.0388    1.3957   -1.8884 H       1  UNL1        0.0472
     29 H          -0.9738    0.0775    1.6189 H       1  UNL1        0.0660
     30 H          -0.4641   -1.5590   -2.3379 H       1  UNL1        0.0624
     31 H           1.5710    1.4345    1.8039 H       1  UNL1        0.0391
     32 H           0.2330    2.4231    1.1683 H       1  UNL1        0.0391
     33 H           1.6677    3.1727    1.8837 H       1  UNL1        0.0391
     34 H           2.1508    4.5194   -0.0403 H       1  UNL1        0.0391
     35 H           0.6824    3.9158   -0.8405 H       1  UNL1        0.0391
     36 H           2.2676    3.7912   -1.6352 H       1  UNL1        0.0391
     37 H          -2.8682   -1.2258   -2.7799 H       1  UNL1        0.0619
     38 H          -4.3210   -0.2703   -1.1012 H       1  UNL1        0.0654
     39 H          -5.4128    1.1233    1.9015 H       1  UNL1        0.0660
     40 H          -5.4095   -0.2823    0.8419 H       1  UNL1        0.0660
     41 H          -5.0600    1.3821    0.1966 H       1  UNL1        0.0660
@<TRIPOS>BOND
     1     1    15    1
     2     1    18    1
     3     2     9    1
     4     2    13    1
     5     2    14    1
     6     3     4    1
     7     3     5    1
     8     3    19    1
     9     3    20    1
    10     4     8    2
    11     4     9    1
    12     5     6    1
    13     5    21    1
    14     5    22    1
    15     6     7    1
    16     6    23    1
    17     6    24    1
    18     7     8    1
    19     7    25    1
    20     7    26    1
    21     8    10    1
    22     9    27    1
    23     9    28    1
    24    10    11   ar
    25    10    12   ar
    26    11    15   ar
    27    11    29    1
    28    12    16   ar
    29    12    30    1
    30    13    31    1
    31    13    32    1
    32    13    33    1
    33    14    34    1
    34    14    35    1
    35    14    36    1
    36    15    17   ar
    37    16    17   ar
    38    16    37    1
    39    17    38    1
    40    18    39    1
    41    18    40    1
    42    18    41    1
@<TRIPOS>MOLECULE
10220107
 35 36 0 0 0
SMALL
GASTEIGER

@<TRIPOS>ATOM
      1 O          -1.1728    0.4356    1.8000 O.3     1  UNL1       -0.3836
      2 O           3.4756    0.1179   -2.1102 O.3     1  UNL1       -0.5068
      3 N          -1.8853   -3.0938   -0.4606 N.3     1  UNL1       -0.3296
      4 C          -0.7190    0.4466    0.4365 C.3     1  UNL1        0.0950
      5 C          -1.4837   -0.6918   -0.3082 C.3     1  UNL1        0.0043
      6 C          -1.0995    1.8259   -0.1581 C.3     1  UNL1       -0.0195
      7 C          -3.0024   -0.4250   -0.3334 C.3     1  UNL1       -0.0461
      8 C          -2.6099    2.0608   -0.1768 C.3     1  UNL1       -0.0501
      9 C          -3.3340    0.9443   -0.9173 C.3     1  UNL1       -0.0526
     10 C          -1.2381   -2.0777    0.3072 C.3     1  UNL1       -0.0011
     11 C           0.8009    0.2524    0.3753 C.ar    1  UNL1       -0.0124
     12 C           1.4519    0.2745   -0.8546 C.ar    1  UNL1       -0.0143
     13 C           1.5200    0.0549    1.5504 C.ar    1  UNL1       -0.0556
     14 C           2.8342    0.0977   -0.9100 C.ar    1  UNL1        0.1172
     15 C           2.9025   -0.1220    1.4951 C.ar    1  UNL1       -0.0580
     16 C           3.5596   -0.1005    0.2648 C.ar    1  UNL1       -0.0202
     17 H          -1.1419   -0.7150   -1.3532 H       1  UNL1        0.0344
     18 H          -0.7267    1.9294   -1.1843 H       1  UNL1        0.0296
     19 H          -0.6346    2.6299    0.4277 H       1  UNL1        0.0296
     20 H          -3.4173   -0.4946    0.6804 H       1  UNL1        0.0269
     21 H          -3.5222   -1.1782   -0.9370 H       1  UNL1        0.0269
     22 H          -2.8244    3.0208   -0.6603 H       1  UNL1        0.0266
     23 H          -2.9909    2.1323    0.8490 H       1  UNL1        0.0266
     24 H          -4.4158    1.1128   -0.8689 H       1  UNL1        0.0265
     25 H          -3.0550    0.9667   -1.9779 H       1  UNL1        0.0265
     26 H          -1.6077   -2.1118    1.3382 H       1  UNL1        0.0426
     27 H          -0.1661   -2.2970    0.3442 H       1  UNL1        0.0426
     28 H          -0.8953    1.2666    2.2222 H       1  UNL1        0.2106
     29 H           0.8964    0.4218   -1.7767 H       1  UNL1        0.0658
     30 H           1.0456    0.0257    2.5261 H       1  UNL1        0.0621
     31 H          -1.6795   -4.0121   -0.0701 H       1  UNL1        0.1182
     32 H          -1.5261   -3.1025   -1.4142 H       1  UNL1        0.1182
     33 H           3.4676   -0.2779    2.4094 H       1  UNL1        0.0619
     34 H           4.6367   -0.2394    0.2281 H       1  UNL1        0.0654
     35 H           2.8222    0.2657   -2.8153 H       1  UNL1        0.2921
@<TRIPOS>BOND
     1     1     4    1
     2     1    28    1
     3     2    14    1
     4     2    35    1
     5     3    10    1
     6     3    31    1
     7     3    32    1
     8     4     5    1
     9     4     6    1
    10     4    11    1
    11     5     7    1
    12     5    10    1
    13     5    17    1
    14     6     8    1
    15     6    18    1
    16     6    19    1
    17     7     9    1
    18     7    20    1
    19     7    21    1
    20     8     9    1
    21     8    22    1
    22     8    23    1
    23     9    24    1
    24     9    25    1
    25    10    26    1
    26    10    27    1
    27    11    12   ar
    28    11    13   ar
    29    12    14   ar
    30    12    29    1
    31    13    15   ar
    32    13    30    1
    33    14    16   ar
    34    15    16   ar
    35    15    33    1
    36    16    34    1
@<TRIPOS>MOLECULE
49849457
 38 39 0 0 0
SMALL
GASTEIGER

@<TRIPOS>ATOM
      1 O          -0.9644    0.8336    1.8035 O.3     1  UNL1       -0.3836
      2 O           3.5952   -0.1432   -2.1094 O.3     1  UNL1       -0.5068
      3 N          -2.1871   -2.5428   -0.5244 N.3     1  UNL1       -0.3186
      4 C          -1.4374   -0.2122   -0.3166 C.3     1  UNL1        0.0045
      5 C          -0.5113    0.7902    0.4405 C.3     1  UNL1        0.0950
      6 C          -2.8984    0.2809   -0.3399 C.3     1  UNL1       -0.0461
      7 C          -0.6782    2.2173   -0.1397 C.3     1  UNL1       -0.0195
      8 C          -3.0185    1.6904   -0.9097 C.3     1  UNL1       -0.0526
      9 C          -2.1360    2.6772   -0.1567 C.3     1  UNL1       -0.0501
     10 C          -1.4047   -1.6254    0.2845 C.3     1  UNL1        0.0014
     11 C           0.9621    0.3698    0.3781 C.ar    1  UNL1       -0.0124
     12 C           1.6169    0.3044   -0.8518 C.ar    1  UNL1       -0.0143
     13 C           1.6473    0.0522    1.5509 C.ar    1  UNL1       -0.0556
     14 C           2.9571   -0.0786   -0.9090 C.ar    1  UNL1        0.1172
     15 C           2.9873   -0.3310    1.4938 C.ar    1  UNL1       -0.0580
     16 C          -2.1721   -3.8866    0.0420 C.3     1  UNL1       -0.0158
     17 C           3.6423   -0.3962    0.2639 C.ar    1  UNL1       -0.0202
     18 H          -1.0997   -0.2757   -1.3611 H       1  UNL1        0.0344
     19 H          -3.5236   -0.3805   -0.9511 H       1  UNL1        0.0269
     20 H          -3.3213    0.2642    0.6728 H       1  UNL1        0.0269
     21 H          -0.0988    2.9358    0.4548 H       1  UNL1        0.0296
     22 H          -0.2915    2.2733   -1.1645 H       1  UNL1        0.0296
     23 H          -4.0626    2.0196   -0.8604 H       1  UNL1        0.0265
     24 H          -2.7367    1.6814   -1.9698 H       1  UNL1        0.0265
     25 H          -2.2024    3.6636   -0.6300 H       1  UNL1        0.0266
     26 H          -2.5042    2.7945    0.8695 H       1  UNL1        0.0266
     27 H          -1.7959   -1.6034    1.3091 H       1  UNL1        0.0428
     28 H          -0.3715   -1.9867    0.3354 H       1  UNL1        0.0428
     29 H          -0.5614    1.6058    2.2361 H       1  UNL1        0.2106
     30 H          -1.8134   -2.5722   -1.4726 H       1  UNL1        0.1216
     31 H           1.0983    0.5419   -1.7766 H       1  UNL1        0.0658
     32 H           1.1722    0.0849    2.5265 H       1  UNL1        0.0621
     33 H           3.5207   -0.5800    2.4066 H       1  UNL1        0.0619
     34 H          -2.7772   -4.5509   -0.5827 H       1  UNL1        0.0388
     35 H          -1.1567   -4.2942    0.0822 H       1  UNL1        0.0388
     36 H          -2.6038   -3.8974    1.0480 H       1  UNL1        0.0388
     37 H           4.6862   -0.6964    0.2329 H       1  UNL1        0.0654
     38 H           4.5146   -0.4249   -1.9626 H       1  UNL1        0.2921
@<TRIPOS>BOND
     1     1     5    1
     2     1    29    1
     3     2    14    1
     4     2    38    1
     5     3    10    1
     6     3    16    1
     7     3    30    1
     8     4     5    1
     9     4     6    1
    10     4    10    1
    11     4    18    1
    12     5     7    1
    13     5    11    1
    14     6     8    1
    15     6    19    1
    16     6    20    1
    17     7     9    1
    18     7    21    1
    19     7    22    1
    20     8     9    1
    21     8    23    1
    22     8    24    1
    23     9    25    1
    24     9    26    1
    25    10    27    1
    26    10    28    1
    27    11    12   ar
    28    11    13   ar
    29    12    14   ar
    30    12    31    1
    31    13    15   ar
    32    13    32    1
    33    14    17   ar
    34    15    17   ar
    35    15    33    1
    36    16    34    1
    37    16    35    1
    38    16    36    1
    39    17    37    1
@<TRIPOS>MOLECULE
96360331
 61 63 0 0 0
SMALL
GASTEIGER

@<TRIPOS>ATOM
      1 O          -4.4120    0.9676    0.2928 O.3     1  UNL1       -0.3836
      2 O           1.5245    2.1433    0.6986 O.3     1  UNL1       -0.4608
      3 O           2.0307   -0.1306    0.8237 O.3     1  UNL1       -0.3221
      4 O           3.7505    2.5266   -0.9990 O.3     1  UNL1       -0.3829
      5 O           5.8454    0.5038   -0.5605 O.3     1  UNL1       -0.3863
      6 O           4.6845   -2.1583   -0.6674 O.3     1  UNL1       -0.3860
      7 O           2.8100   -3.5510    0.6840 O.3     1  UNL1       -0.4788
      8 O           1.7527   -2.2467    2.2256 O.2     1  UNL1       -0.2480
      9 N          -2.6486   -1.7667   -2.4848 N.3     1  UNL1       -0.3080
     10 C          -2.8386   -0.8164   -0.2274 C.3     1  UNL1        0.0048
     11 C          -3.1064    0.4682    0.6204 C.3     1  UNL1        0.0950
     12 C          -3.7513   -1.9873    0.1876 C.3     1  UNL1       -0.0461
     13 C          -3.1036    0.1455    2.1351 C.3     1  UNL1       -0.0195
     14 C          -3.6776   -2.2682    1.6841 C.3     1  UNL1       -0.0526
     15 C          -4.0068   -1.0302    2.5070 C.3     1  UNL1       -0.0501
     16 C          -2.9980   -0.5734   -1.7352 C.3     1  UNL1        0.0041
     17 C          -2.0711    1.5684    0.3440 C.ar    1  UNL1       -0.0124
     18 C          -0.7271    1.3537    0.6496 C.ar    1  UNL1       -0.0139
     19 C          -2.4747    2.7824   -0.2120 C.ar    1  UNL1       -0.0556
     20 C           3.6517    1.4118   -0.1133 C.3     1  UNL1        0.1455
     21 C           2.1737    1.0540    0.0442 C.3     1  UNL1        0.2312
     22 C           4.4475    0.2381   -0.6852 C.3     1  UNL1        0.1157
     23 C           0.2134    2.3530    0.3992 C.ar    1  UNL1        0.1243
     24 C           4.1443   -1.0594    0.0647 C.3     1  UNL1        0.1202
     25 C           2.6412   -1.2600    0.2104 C.3     1  UNL1        0.1869
     26 C          -3.2758   -1.7527   -3.8100 C.3     1  UNL1       -0.0130
     27 C          -1.1939   -1.8913   -2.6187 C.3     1  UNL1       -0.0130
     28 C          -1.5342    3.7818   -0.4621 C.ar    1  UNL1       -0.0580
     29 C          -0.1902    3.5669   -0.1568 C.ar    1  UNL1       -0.0198
     30 C           2.3397   -2.3727    1.1614 C.2     1  UNL1        0.3367
     31 H          -1.8093   -1.1341   -0.0184 H       1  UNL1        0.0344
     32 H          -3.4735   -2.9074   -0.3394 H       1  UNL1        0.0269
     33 H          -4.7917   -1.7679   -0.0848 H       1  UNL1        0.0269
     34 H          -3.4260    1.0227    2.7116 H       1  UNL1        0.0296
     35 H          -2.0928   -0.0995    2.4832 H       1  UNL1        0.0296
     36 H          -2.6714   -2.6221    1.9406 H       1  UNL1        0.0265
     37 H          -4.3738   -3.0747    1.9409 H       1  UNL1        0.0265
     38 H          -5.0562   -0.7530    2.3495 H       1  UNL1        0.0266
     39 H          -3.8954   -1.2559    3.5737 H       1  UNL1        0.0266
     40 H          -2.4059    0.2869   -2.0708 H       1  UNL1        0.0430
     41 H          -4.0474   -0.3088   -1.9233 H       1  UNL1        0.0430
     42 H          -4.6885    1.5926    0.9846 H       1  UNL1        0.2106
     43 H          -0.4113    0.4131    1.0891 H       1  UNL1        0.0658
     44 H          -3.5080    2.9897   -0.4718 H       1  UNL1        0.0621
     45 H           4.0741    1.7313    0.8467 H       1  UNL1        0.0683
     46 H           4.2544    0.1231   -1.7583 H       1  UNL1        0.0648
     47 H           1.7195    0.9005   -0.9462 H       1  UNL1        0.1084
     48 H           4.6357   -1.0515    1.0454 H       1  UNL1        0.0652
     49 H           2.1403   -1.4795   -0.7408 H       1  UNL1        0.0742
     50 H          -4.3676   -1.7295   -3.7197 H       1  UNL1        0.0391
     51 H          -3.0290   -2.6663   -4.3624 H       1  UNL1        0.0391
     52 H          -2.9579   -0.8902   -4.4069 H       1  UNL1        0.0391
     53 H          -0.7017   -1.9945   -1.6470 H       1  UNL1        0.0391
     54 H          -0.7508   -1.0355   -3.1413 H       1  UNL1        0.0391
     55 H          -0.9418   -2.7982   -3.1806 H       1  UNL1        0.0391
     56 H          -1.8475    4.7266   -0.8967 H       1  UNL1        0.0619
     57 H           0.5382    4.3485   -0.3548 H       1  UNL1        0.0654
     58 H           3.3735    2.2651   -1.8564 H       1  UNL1        0.2102
     59 H           6.0456    0.6329    0.3823 H       1  UNL1        0.2100
     60 H           4.2514   -2.1829   -1.5377 H       1  UNL1        0.2100
     61 H           2.6230   -4.2949    1.2955 H       1  UNL1        0.2951
@<TRIPOS>BOND
     1     1    11    1
     2     1    42    1
     3     2    21    1
     4     2    23    1
     5     3    21    1
     6     3    25    1
     7     4    20    1
     8     4    58    1
     9     5    22    1
    10     5    59    1
    11     6    24    1
    12     6    60    1
    13     7    30    1
    14     7    61    1
    15     8    30    2
    16     9    16    1
    17     9    26    1
    18     9    27    1
    19    10    11    1
    20    10    12    1
    21    10    16    1
    22    10    31    1
    23    11    13    1
    24    11    17    1
    25    12    14    1
    26    12    32    1
    27    12    33    1
    28    13    15    1
    29    13    34    1
    30    13    35    1
    31    14    15    1
    32    14    36    1
    33    14    37    1
    34    15    38    1
    35    15    39    1
    36    16    40    1
    37    16    41    1
    38    17    18   ar
    39    17    19   ar
    40    18    23   ar
    41    18    43    1
    42    19    28   ar
    43    19    44    1
    44    20    21    1
    45    20    22    1
    46    20    45    1
    47    21    47    1
    48    22    24    1
    49    22    46    1
    50    23    29   ar
    51    24    25    1
    52    24    48    1
    53    25    30    1
    54    25    49    1
    55    26    50    1
    56    26    51    1
    57    26    52    1
    58    27    53    1
    59    27    54    1
    60    27    55    1
    61    28    29   ar
    62    28    56    1
    63    29    57    1
@<TRIPOS>MOLECULE
6918933
 45 46 0 0 0
SMALL
GASTEIGER

@<TRIPOS>ATOM
      1 O          -1.1871    1.4523    1.6685 O.3     1  UNL1       -0.3835
      2 O           3.5502   -0.5072   -1.6058 O.3     1  UNL1       -0.4951
      3 N          -2.4873   -2.2807    0.0429 N.4     1  UNL1        0.2312
      4 C          -1.5757   -0.0273   -0.1949 C.3     1  UNL1        0.0321
      5 C          -0.6545    1.0918    0.3834 C.3     1  UNL1        0.0987
      6 C          -3.0098    0.4901   -0.4271 C.3     1  UNL1       -0.0424
      7 C          -0.7236    2.3570   -0.5085 C.3     1  UNL1       -0.0194
      8 C          -1.6411   -1.2707    0.7048 C.3     1  UNL1       -0.0265
      9 C          -3.0336    1.7393   -1.3016 C.3     1  UNL1       -0.0524
     10 C          -2.1562    2.8436   -0.7273 C.3     1  UNL1       -0.0501
     11 C           0.8002    0.6256    0.5172 C.ar    1  UNL1       -0.0122
     12 C          -2.0002   -2.6418   -1.3429 C.3     1  UNL1       -0.0433
     13 C          -2.6879   -3.5231    0.8821 C.3     1  UNL1       -0.0433
     14 C           1.5197    0.2685   -0.6195 C.ar    1  UNL1       -0.0140
     15 C           1.3920    0.5609    1.7752 C.ar    1  UNL1       -0.0556
     16 C           2.8425   -0.1567   -0.4972 C.ar    1  UNL1        0.1204
     17 C           2.7147    0.1352    1.8976 C.ar    1  UNL1       -0.0580
     18 C           3.4401   -0.2235    0.7614 C.ar    1  UNL1       -0.0199
     19 C           4.8975   -0.9331   -1.4083 C.3     1  UNL1        0.0788
     20 H          -1.1566   -0.2915   -1.1722 H       1  UNL1        0.0384
     21 H          -3.4959    0.7089    0.5321 H       1  UNL1        0.0271
     22 H          -3.6401   -0.2396   -0.9425 H       1  UNL1        0.0271
     23 H          -0.2734    2.1717   -1.4913 H       1  UNL1        0.0296
     24 H          -0.1505    3.1732   -0.0493 H       1  UNL1        0.0296
     25 H          -2.0941   -1.0427    1.6761 H       1  UNL1        0.0818
     26 H          -0.6544   -1.7172    0.8665 H       1  UNL1        0.0818
     27 H          -4.0633    2.1022   -1.3979 H       1  UNL1        0.0265
     28 H          -2.6892    1.4857   -2.3118 H       1  UNL1        0.0265
     29 H          -2.1506    3.7005   -1.4107 H       1  UNL1        0.0266
     30 H          -2.5804    3.1983    0.2197 H       1  UNL1        0.0266
     31 H          -3.4390   -1.9110   -0.0566 H       1  UNL1        0.2028
     32 H          -0.7821    2.2927    1.9436 H       1  UNL1        0.2106
     33 H          -2.5307   -3.5429   -1.6650 H       1  UNL1        0.0777
     34 H          -2.2503   -1.8385   -2.0384 H       1  UNL1        0.0777
     35 H          -0.9244   -2.8326   -1.3007 H       1  UNL1        0.0777
     36 H          -3.0880   -3.2136    1.8512 H       1  UNL1        0.0777
     37 H          -3.4083   -4.1671    0.3709 H       1  UNL1        0.0777
     38 H          -1.7218   -4.0215    0.9966 H       1  UNL1        0.0777
     39 H           1.0701    0.3082   -1.6077 H       1  UNL1        0.0658
     40 H           0.8602    0.8253    2.6837 H       1  UNL1        0.0621
     41 H           3.1789    0.0819    2.8782 H       1  UNL1        0.0619
     42 H           4.4623   -0.5451    0.9286 H       1  UNL1        0.0654
     43 H           5.3087   -1.1723   -2.3945 H       1  UNL1        0.0660
     44 H           4.9462   -1.8498   -0.8108 H       1  UNL1        0.0660
     45 H           5.5158   -0.1316   -0.9901 H       1  UNL1        0.0660
@<TRIPOS>UNITY_ATOM_ATTR
3 1
charge 1
@<TRIPOS>BOND
     1     1     5    1
     2     1    32    1
     3     2    16    1
     4     2    19    1
     5     3     8    1
     6     3    12    1
     7     3    13    1
     8     3    31    1
     9     4     5    1
    10     4     6    1
    11     4     8    1
    12     4    20    1
    13     5     7    1
    14     5    11    1
    15     6     9    1
    16     6    21    1
    17     6    22    1
    18     7    10    1
    19     7    23    1
    20     7    24    1
    21     8    25    1
    22     8    26    1
    23     9    10    1
    24     9    27    1
    25     9    28    1
    26    10    29    1
    27    10    30    1
    28    11    14   ar
    29    11    15   ar
    30    12    33    1
    31    12    34    1
    32    12    35    1
    33    13    36    1
    34    13    37    1
    35    13    38    1
    36    14    16   ar
    37    14    39    1
    38    15    17   ar
    39    15    40    1
    40    16    18   ar
    41    17    18   ar
    42    17    41    1
    43    18    42    1
    44    19    43    1
    45    19    44    1
    46    19    45    1
@<TRIPOS>MOLECULE
6919029
 45 46 0 0 0
SMALL
GASTEIGER

@<TRIPOS>ATOM
      1 O          -0.4631    1.2929   -1.6477 O.3     1  UNL1       -0.3835
      2 O           4.3031    0.1864   -0.9260 O.3     1  UNL1       -0.4951
      3 N          -2.8596   -2.0302   -0.3284 N.4     1  UNL1        0.2312
      4 C          -1.7393    0.1056    0.0530 C.3     1  UNL1        0.0321
      5 C          -0.4989    1.0088   -0.2407 C.3     1  UNL1        0.0987
      6 C          -3.0687    0.8553   -0.1635 C.3     1  UNL1       -0.0424
      7 C          -0.6100    2.3645    0.4996 C.3     1  UNL1       -0.0194
      8 C          -1.7500   -1.1769   -0.7915 C.3     1  UNL1       -0.0265
      9 C          -3.1211    2.1647    0.6155 C.3     1  UNL1       -0.0524
     10 C          -1.9466    3.0713    0.2740 C.3     1  UNL1       -0.0501
     11 C           0.8180    0.3285    0.1613 C.ar    1  UNL1       -0.0122
     12 C          -3.0154   -3.2920   -1.1479 C.3     1  UNL1       -0.0433
     13 C          -2.7776   -2.3548    1.1468 C.3     1  UNL1       -0.0433
     14 C           1.9735    0.5704   -0.5753 C.ar    1  UNL1       -0.0140
     15 C           0.8472   -0.5249    1.2602 C.ar    1  UNL1       -0.0556
     16 C           3.1697   -0.0470   -0.2096 C.ar    1  UNL1        0.1204
     17 C           2.0432   -1.1423    1.6258 C.ar    1  UNL1       -0.0580
     18 C           3.2044   -0.9033    0.8910 C.ar    1  UNL1       -0.0199
     19 C           5.4911   -0.4770   -0.4964 C.3     1  UNL1        0.0788
     20 H          -1.7234   -0.1180    1.1208 H       1  UNL1        0.0384
     21 H          -3.9321    0.2697    0.1654 H       1  UNL1        0.0271
     22 H          -3.2128    1.0649   -1.2310 H       1  UNL1        0.0271
     23 H           0.1918    3.0390    0.1719 H       1  UNL1        0.0296
     24 H          -0.4753    2.2127    1.5789 H       1  UNL1        0.0296
     25 H          -0.8260   -1.7558   -0.6978 H       1  UNL1        0.0818
     26 H          -1.9256   -0.9598   -1.8511 H       1  UNL1        0.0818
     27 H          -3.1191    1.9518    1.6917 H       1  UNL1        0.0265
     28 H          -4.0604    2.6852    0.3961 H       1  UNL1        0.0265
     29 H          -2.0222    3.3918   -0.7721 H       1  UNL1        0.0266
     30 H          -1.9900    3.9783    0.8876 H       1  UNL1        0.0266
     31 H          -3.7470   -1.5371   -0.4781 H       1  UNL1        0.2028
     32 H          -0.2134    0.4829   -2.1236 H       1  UNL1        0.2106
     33 H          -2.1275   -3.9121   -0.9984 H       1  UNL1        0.0777
     34 H          -3.9198   -3.8067   -0.8129 H       1  UNL1        0.0777
     35 H          -3.1201   -3.0014   -2.1965 H       1  UNL1        0.0777
     36 H          -1.7546   -2.6548    1.3883 H       1  UNL1        0.0777
     37 H          -3.1088   -1.4916    1.7270 H       1  UNL1        0.0777
     38 H          -3.4680   -3.1786    1.3519 H       1  UNL1        0.0777
     39 H           1.9738    1.2456   -1.4267 H       1  UNL1        0.0658
     40 H          -0.0124   -0.7199    1.8888 H       1  UNL1        0.0621
     41 H           2.0717   -1.8029    2.4877 H       1  UNL1        0.0619
     42 H           4.0988   -1.4138    1.2312 H       1  UNL1        0.0654
     43 H           6.2932   -0.1773   -1.1788 H       1  UNL1        0.0660
     44 H           5.3949   -1.5653   -0.5743 H       1  UNL1        0.0660
     45 H           5.7896   -0.1574    0.5078 H       1  UNL1        0.0660
@<TRIPOS>UNITY_ATOM_ATTR
3 1
charge 1
@<TRIPOS>BOND
     1     1     5    1
     2     1    32    1
     3     2    16    1
     4     2    19    1
     5     3     8    1
     6     3    12    1
     7     3    13    1
     8     3    31    1
     9     4     5    1
    10     4     6    1
    11     4     8    1
    12     4    20    1
    13     5     7    1
    14     5    11    1
    15     6     9    1
    16     6    21    1
    17     6    22    1
    18     7    10    1
    19     7    23    1
    20     7    24    1
    21     8    25    1
    22     8    26    1
    23     9    10    1
    24     9    27    1
    25     9    28    1
    26    10    29    1
    27    10    30    1
    28    11    14   ar
    29    11    15   ar
    30    12    33    1
    31    12    34    1
    32    12    35    1
    33    13    36    1
    34    13    37    1
    35    13    38    1
    36    14    16   ar
    37    14    39    1
    38    15    17   ar
    39    15    40    1
    40    16    18   ar
    41    17    18   ar
    42    17    41    1
    43    18    42    1
    44    19    43    1
    45    19    44    1
    46    19    45    1
@<TRIPOS>MOLECULE
91898401
 34 36 0 0 0
SMALL
GASTEIGER

@<TRIPOS>ATOM
      1 N           1.1824    0.4018    1.3306 N.pl3   1  UNL1       -0.3131
      2 N           2.7241   -1.2452    0.3685 N.pl3   1  UNL1       -0.2372
      3 N           2.7346    0.8932   -0.4308 N.2     1  UNL1       -0.1163
      4 C          -1.0468   -0.0859    0.3390 C.ar    1  UNL1       -0.0104
      5 C          -0.8202   -1.5532    0.6057 C.3     1  UNL1       -0.0244
      6 C          -2.0997   -2.3842    0.5320 C.3     1  UNL1       -0.0487
      7 C          -2.8908   -2.0336   -0.7217 C.3     1  UNL1       -0.0488
      8 C          -3.3244   -0.5692   -0.6871 C.3     1  UNL1       -0.0273
      9 C          -2.2095    0.3731   -0.3071 C.ar    1  UNL1       -0.0412
     10 C          -0.0472    0.8330    0.6931 C.ar    1  UNL1        0.0668
     11 C          -2.3644    1.7457   -0.5533 C.ar    1  UNL1       -0.0581
     12 C          -0.2090    2.1935    0.4335 C.ar    1  UNL1       -0.0275
     13 C           2.2351    0.0197    0.3998 C.cat   1  UNL1        0.3411
     14 C          -1.3680    2.6499   -0.1872 C.ar    1  UNL1       -0.0585
     15 C           3.7440   -1.3384   -0.6329 C.3     1  UNL1        0.0919
     16 C           3.7597    0.0999   -1.1821 C.3     1  UNL1        0.1327
     17 H          -0.1068   -1.9330   -0.1356 H       1  UNL1        0.0314
     18 H          -0.3986   -1.7176    1.6024 H       1  UNL1        0.0314
     19 H          -1.8470   -3.4504    0.5335 H       1  UNL1        0.0269
     20 H          -2.7183   -2.1989    1.4194 H       1  UNL1        0.0269
     21 H          -3.7739   -2.6769   -0.8043 H       1  UNL1        0.0268
     22 H          -2.2730   -2.2195   -1.6095 H       1  UNL1        0.0268
     23 H          -4.1342   -0.4488    0.0434 H       1  UNL1        0.0313
     24 H          -3.7235   -0.2976   -1.6717 H       1  UNL1        0.0313
     25 H           1.0051   -0.3718    1.9812 H       1  UNL1        0.2126
     26 H           1.5407    1.1718    1.9130 H       1  UNL1        0.2126
     27 H          -3.2663    2.1174   -1.0337 H       1  UNL1        0.0620
     28 H           0.5611    2.9096    0.7089 H       1  UNL1        0.0649
     29 H          -1.4969    3.7097   -0.3867 H       1  UNL1        0.0619
     30 H           3.4780   -2.0608   -1.4101 H       1  UNL1        0.0665
     31 H           4.7097   -1.6114   -0.1976 H       1  UNL1        0.0665
     32 H           2.4295   -2.0199    0.9500 H       1  UNL1        0.2444
     33 H           4.7448    0.5591   -1.0474 H       1  UNL1        0.0723
     34 H           3.5175    0.1131   -2.2501 H       1  UNL1        0.0723
@<TRIPOS>UNITY_ATOM_ATTR
1 1
charge 1
@<TRIPOS>BOND
     1     1    10    1
     2     1    13    1
     3     1    25    1
     4     1    26    1
     5     2    13    1
     6     2    15    1
     7     2    32    1
     8     3    13    2
     9     3    16    1
    10     4     5    1
    11     4     9   ar
    12     4    10   ar
    13     5     6    1
    14     5    17    1
    15     5    18    1
    16     6     7    1
    17     6    19    1
    18     6    20    1
    19     7     8    1
    20     7    21    1
    21     7    22    1
    22     8     9    1
    23     8    23    1
    24     8    24    1
    25     9    11   ar
    26    10    12   ar
    27    11    14   ar
    28    11    27    1
    29    12    14   ar
    30    12    28    1
    31    14    29    1
    32    15    16    1
    33    15    30    1
    34    15    31    1
    35    16    33    1
    36    16    34    1
@<TRIPOS>MOLECULE
25182360
 41 42 0 0 0
SMALL
GASTEIGER

@<TRIPOS>ATOM
      1 O          -0.6087    1.2513   -1.8162 O.3     1  UNL1       -0.3836
      2 O           3.6163   -0.6700    2.0888 O.3     1  UNL1       -0.5068
      3 N          -2.4647   -2.0773    0.1282 N.3     1  UNL1       -0.3080
      4 C          -1.3335    0.1020    0.2047 C.3     1  UNL1        0.0048
      5 C          -0.2532    1.0258   -0.4435 C.3     1  UNL1        0.0950
      6 C          -2.6995    0.8051    0.3316 C.3     1  UNL1       -0.0461
      7 C          -0.2120    2.4078    0.2539 C.3     1  UNL1       -0.0195
      8 C          -2.5895    2.1442    1.0519 C.3     1  UNL1       -0.0526
      9 C          -1.5857    3.0676    0.3754 C.3     1  UNL1       -0.0501
     10 C          -1.5229   -1.2147   -0.5624 C.3     1  UNL1        0.0041
     11 C           1.1481    0.3994   -0.3907 C.ar    1  UNL1       -0.0124
     12 C           1.7533    0.1467    0.8402 C.ar    1  UNL1       -0.0143
     13 C           1.8153    0.0832   -1.5740 C.ar    1  UNL1       -0.0556
     14 C          -1.8139   -2.7740    1.2420 C.3     1  UNL1       -0.0130
     15 C          -3.0561   -3.0498   -0.7960 C.3     1  UNL1       -0.0130
     16 C           3.0258   -0.4226    0.8879 C.ar    1  UNL1        0.1172
     17 C           3.0879   -0.4860   -1.5265 C.ar    1  UNL1       -0.0580
     18 C           3.6931   -0.7388   -0.2955 C.ar    1  UNL1       -0.0202
     19 H          -1.0007   -0.1186    1.2267 H       1  UNL1        0.0344
     20 H          -3.4109    0.1837    0.8877 H       1  UNL1        0.0269
     21 H          -3.1322    0.9684   -0.6638 H       1  UNL1        0.0269
     22 H           0.4505    3.0910   -0.2939 H       1  UNL1        0.0296
     23 H           0.1988    2.3242    1.2674 H       1  UNL1        0.0296
     24 H          -2.2890    1.9758    2.0934 H       1  UNL1        0.0265
     25 H          -3.5724    2.6284    1.0787 H       1  UNL1        0.0265
     26 H          -1.9523    3.3416   -0.6212 H       1  UNL1        0.0266
     27 H          -1.4968    3.9983    0.9473 H       1  UNL1        0.0266
     28 H          -0.5678   -1.7289   -0.7252 H       1  UNL1        0.0430
     29 H          -1.9065   -0.9684   -1.5619 H       1  UNL1        0.0430
     30 H          -0.1048    2.0147   -2.1465 H       1  UNL1        0.2106
     31 H           1.2410    0.3797    1.7698 H       1  UNL1        0.0658
     32 H           1.3795    0.2558   -2.5531 H       1  UNL1        0.0621
     33 H          -1.4402   -2.0762    1.9971 H       1  UNL1        0.0391
     34 H          -0.9797   -3.4018    0.9075 H       1  UNL1        0.0391
     35 H          -2.5352   -3.4175    1.7589 H       1  UNL1        0.0391
     36 H          -3.6042   -2.5383   -1.5952 H       1  UNL1        0.0391
     37 H          -3.7840   -3.6822   -0.2756 H       1  UNL1        0.0391
     38 H          -2.2988   -3.6970   -1.2530 H       1  UNL1        0.0391
     39 H           3.6073   -0.7341   -2.4476 H       1  UNL1        0.0619
     40 H           4.6843   -1.1830   -0.2648 H       1  UNL1        0.0654
     41 H           3.0150   -0.3902    2.8004 H       1  UNL1        0.2921
@<TRIPOS>BOND
     1     1     5    1
     2     1    30    1
     3     2    16    1
     4     2    41    1
     5     3    10    1
     6     3    14    1
     7     3    15    1
     8     4     5    1
     9     4     6    1
    10     4    10    1
    11     4    19    1
    12     5     7    1
    13     5    11    1
    14     6     8    1
    15     6    20    1
    16     6    21    1
    17     7     9    1
    18     7    22    1
    19     7    23    1
    20     8     9    1
    21     8    24    1
    22     8    25    1
    23     9    26    1
    24     9    27    1
    25    10    28    1
    26    10    29    1
    27    11    12   ar
    28    11    13   ar
    29    12    16   ar
    30    12    31    1
    31    13    17   ar
    32    13    32    1
    33    14    33    1
    34    14    34    1
    35    14    35    1
    36    15    36    1
    37    15    37    1
    38    15    38    1
    39    16    18   ar
    40    17    18   ar
    41    17    39    1
    42    18    40    1
@<TRIPOS>MOLECULE
49849455
 41 42 0 0 0
SMALL
GASTEIGER

@<TRIPOS>ATOM
      1 O          -1.3499    0.7776    1.8573 O.3     1  UNL1       -0.3836
      2 O           3.6480   -0.1451   -1.4933 O.3     1  UNL1       -0.4951
      3 N          -2.3116   -2.5071   -0.7118 N.3     1  UNL1       -0.3186
      4 C          -1.5682   -0.1953   -0.3377 C.3     1  UNL1        0.0045
      5 C          -0.7321    0.7696    0.5598 C.3     1  UNL1        0.0950
      6 C          -0.8106    2.2162    0.0100 C.3     1  UNL1       -0.0195
      7 C          -3.0097    0.3197   -0.5251 C.3     1  UNL1       -0.0461
      8 C          -2.2500    2.6978   -0.1717 C.3     1  UNL1       -0.0501
      9 C          -3.0432    1.7477   -1.0593 C.3     1  UNL1       -0.0526
     10 C          -1.6254   -1.6267    0.2166 C.3     1  UNL1        0.0014
     11 C           0.7331    0.3297    0.6659 C.ar    1  UNL1       -0.0124
     12 C           1.5343    0.2926   -0.4753 C.ar    1  UNL1       -0.0141
     13 C           1.2645   -0.0340    1.9033 C.ar    1  UNL1       -0.0556
     14 C           2.8670   -0.1081   -0.3792 C.ar    1  UNL1        0.1204
     15 C           2.5970   -0.4349    1.9994 C.ar    1  UNL1       -0.0580
     16 C          -2.3812   -3.8677   -0.1918 C.3     1  UNL1       -0.0158
     17 C           3.3984   -0.4718    0.8582 C.ar    1  UNL1       -0.0199
     18 C           3.0398    0.2399   -2.7254 C.3     1  UNL1        0.0788
     19 H          -1.1059   -0.2321   -1.3346 H       1  UNL1        0.0344
     20 H          -0.3018    2.9072    0.6949 H       1  UNL1        0.0296
     21 H          -0.3001    2.3004   -0.9569 H       1  UNL1        0.0296
     22 H          -3.5617   -0.3132   -1.2297 H       1  UNL1        0.0269
     23 H          -3.5548    0.2780    0.4267 H       1  UNL1        0.0269
     24 H          -2.7410    2.7887    0.8046 H       1  UNL1        0.0266
     25 H          -2.2467    3.6992   -0.6172 H       1  UNL1        0.0266
     26 H          -2.6325    1.7673   -2.0763 H       1  UNL1        0.0265
     27 H          -4.0818    2.0906   -1.1285 H       1  UNL1        0.0265
     28 H          -0.6103   -2.0045    0.3827 H       1  UNL1        0.0428
     29 H          -2.1400   -1.6306    1.1854 H       1  UNL1        0.0428
     30 H          -0.9950    1.5300    2.3611 H       1  UNL1        0.2106
     31 H          -1.8238   -2.5127   -1.6071 H       1  UNL1        0.1216
     32 H           1.0795    0.5753   -1.4173 H       1  UNL1        0.0658
     33 H           0.6727   -0.0244    2.8134 H       1  UNL1        0.0621
     34 H           3.0108   -0.7197    2.9624 H       1  UNL1        0.0619
     35 H          -2.9115   -4.5035   -0.9075 H       1  UNL1        0.0388
     36 H          -1.3831   -4.2913   -0.0399 H       1  UNL1        0.0388
     37 H          -2.9342   -3.9032    0.7525 H       1  UNL1        0.0388
     38 H           4.4356   -0.7853    0.9393 H       1  UNL1        0.0654
     39 H           2.2258   -0.4388   -3.0022 H       1  UNL1        0.0660
     40 H           2.7212    1.2877   -2.7078 H       1  UNL1        0.0660
     41 H           3.8052    0.1530   -3.5037 H       1  UNL1        0.0660
@<TRIPOS>BOND
     1     1     5    1
     2     1    30    1
     3     2    14    1
     4     2    18    1
     5     3    10    1
     6     3    16    1
     7     3    31    1
     8     4     5    1
     9     4     7    1
    10     4    10    1
    11     4    19    1
    12     5     6    1
    13     5    11    1
    14     6     8    1
    15     6    20    1
    16     6    21    1
    17     7     9    1
    18     7    22    1
    19     7    23    1
    20     8     9    1
    21     8    24    1
    22     8    25    1
    23     9    26    1
    24     9    27    1
    25    10    28    1
    26    10    29    1
    27    11    12   ar
    28    11    13   ar
    29    12    14   ar
    30    12    32    1
    31    13    15   ar
    32    13    33    1
    33    14    17   ar
    34    15    17   ar
    35    15    34    1
    36    16    35    1
    37    16    36    1
    38    16    37    1
    39    17    38    1
    40    18    39    1
    41    18    40    1
    42    18    41    1
@<TRIPOS>MOLECULE
71313807
 54 56 0 0 0
SMALL
GASTEIGER

@<TRIPOS>ATOM
      1 O          -2.2862    2.3861   -1.0431 O.3     1  UNL1       -0.3836
      2 O          -2.9346   -3.2146    1.2519 O.3     1  UNL1       -0.4951
      3 N           1.5741    0.5736   -1.3990 N.3     1  UNL1       -0.3008
      4 C          -0.3729    1.2816   -0.0780 C.3     1  UNL1        0.0048
      5 C          -1.9259    1.4295   -0.0330 C.3     1  UNL1        0.0950
      6 C           0.3283    2.6070    0.2821 C.3     1  UNL1       -0.0461
      7 C          -2.3690    2.0187    1.3299 C.3     1  UNL1       -0.0195
      8 C          -0.1409    3.1571    1.6249 C.3     1  UNL1       -0.0526
      9 C          -1.6538    3.3279    1.6639 C.3     1  UNL1       -0.0501
     10 C           0.1421    0.8084   -1.4457 C.3     1  UNL1        0.0047
     11 C          -2.6373    0.0939   -0.2810 C.ar    1  UNL1       -0.0124
     12 C          -2.4611   -0.9656    0.6091 C.ar    1  UNL1       -0.0141
     13 C          -3.4597   -0.0619   -1.3968 C.ar    1  UNL1       -0.0556
     14 C           1.8726   -0.7015   -0.7399 C.3     1  UNL1        0.0238
     15 C           2.1494    0.5889   -2.7475 C.3     1  UNL1       -0.0124
     16 C          -3.1076   -2.1809    0.3835 C.ar    1  UNL1        0.1204
     17 C          -4.1060   -1.2773   -1.6226 C.ar    1  UNL1       -0.0580
     18 C           3.2709   -0.7309   -0.1826 C.ar    1  UNL1       -0.0334
     19 C          -3.9302   -2.3367   -0.7323 C.ar    1  UNL1       -0.0199
     20 C           4.3263   -1.1899   -0.9708 C.ar    1  UNL1       -0.0573
     21 C           3.5110   -0.2991    1.1219 C.ar    1  UNL1       -0.0573
     22 C           5.6219   -1.2172   -0.4545 C.ar    1  UNL1       -0.0615
     23 C           4.8066   -0.3262    1.6382 C.ar    1  UNL1       -0.0615
     24 C          -2.0800   -2.9858    2.3714 C.3     1  UNL1        0.0788
     25 C           5.8621   -0.7850    0.8499 C.ar    1  UNL1       -0.0617
     26 H          -0.0941    0.5603    0.6989 H       1  UNL1        0.0344
     27 H           1.4145    2.4711    0.3391 H       1  UNL1        0.0269
     28 H           0.1467    3.3579   -0.4975 H       1  UNL1        0.0269
     29 H          -2.1813    1.3116    2.1469 H       1  UNL1        0.0296
     30 H          -3.4500    2.2108    1.3232 H       1  UNL1        0.0296
     31 H           0.3428    4.1215    1.8167 H       1  UNL1        0.0265
     32 H           0.1725    2.4781    2.4276 H       1  UNL1        0.0265
     33 H          -1.9590    3.6671    2.6604 H       1  UNL1        0.0266
     34 H          -1.9560    4.1108    0.9580 H       1  UNL1        0.0266
     35 H          -0.0882    1.5899   -2.1822 H       1  UNL1        0.0430
     36 H          -0.3821   -0.0930   -1.7863 H       1  UNL1        0.0430
     37 H          -3.2049    2.6649   -0.8874 H       1  UNL1        0.2106
     38 H          -1.8074   -0.8048    1.4582 H       1  UNL1        0.0658
     39 H          -3.6179    0.7358   -2.1159 H       1  UNL1        0.0621
     40 H           1.7194   -1.5518   -1.4200 H       1  UNL1        0.0476
     41 H           1.1966   -0.9098    0.0976 H       1  UNL1        0.0476
     42 H           3.2420    0.5598   -2.7247 H       1  UNL1        0.0391
     43 H           1.7832   -0.2376   -3.3672 H       1  UNL1        0.0391
     44 H           1.8987    1.5270   -3.2573 H       1  UNL1        0.0391
     45 H          -4.7452   -1.3997   -2.4921 H       1  UNL1        0.0619
     46 H          -4.4359   -3.2811   -0.9137 H       1  UNL1        0.0654
     47 H           4.1545   -1.5429   -1.9840 H       1  UNL1        0.0621
     48 H           2.6978    0.0635    1.7452 H       1  UNL1        0.0621
     49 H           6.4432   -1.5775   -1.0670 H       1  UNL1        0.0618
     50 H           4.9938    0.0105    2.6536 H       1  UNL1        0.0618
     51 H          -2.0593   -3.9116    2.9557 H       1  UNL1        0.0660
     52 H          -2.4763   -2.2037    3.0279 H       1  UNL1        0.0660
     53 H          -1.0501   -2.7843    2.0575 H       1  UNL1        0.0660
     54 H           6.8708   -0.8066    1.2520 H       1  UNL1        0.0618
@<TRIPOS>BOND
     1     1     5    1
     2     1    37    1
     3     2    16    1
     4     2    24    1
     5     3    10    1
     6     3    14    1
     7     3    15    1
     8     4     5    1
     9     4     6    1
    10     4    10    1
    11     4    26    1
    12     5     7    1
    13     5    11    1
    14     6     8    1
    15     6    27    1
    16     6    28    1
    17     7     9    1
    18     7    29    1
    19     7    30    1
    20     8     9    1
    21     8    31    1
    22     8    32    1
    23     9    33    1
    24     9    34    1
    25    10    35    1
    26    10    36    1
    27    11    12   ar
    28    11    13   ar
    29    12    16   ar
    30    12    38    1
    31    13    17   ar
    32    13    39    1
    33    14    18    1
    34    14    40    1
    35    14    41    1
    36    15    42    1
    37    15    43    1
    38    15    44    1
    39    16    19   ar
    40    17    19   ar
    41    17    45    1
    42    18    20   ar
    43    18    21   ar
    44    19    46    1
    45    20    22   ar
    46    20    47    1
    47    21    23   ar
    48    21    48    1
    49    22    25   ar
    50    22    49    1
    51    23    25   ar
    52    23    50    1
    53    24    51    1
    54    24    52    1
    55    24    53    1
    56    25    54    1
@<TRIPOS>MOLECULE
25181826
 44 45 0 0 0
SMALL
GASTEIGER

@<TRIPOS>ATOM
      1 O          -1.0889    1.4123    1.7372 O.3     1  UNL1       -0.3836
      2 O           3.6783   -0.6637   -1.4281 O.3     1  UNL1       -0.4951
      3 N          -2.4568   -2.2005   -0.1042 N.3     1  UNL1       -0.3080
      4 C          -1.4775    0.0503   -0.2139 C.3     1  UNL1        0.0048
      5 C          -0.5202    1.0829    0.4594 C.3     1  UNL1        0.0950
      6 C          -2.8670    0.6636   -0.4811 C.3     1  UNL1       -0.0461
      7 C          -0.4756    2.3915   -0.3692 C.3     1  UNL1       -0.0195
      8 C          -2.7785    1.9528   -1.2908 C.3     1  UNL1       -0.0526
      9 C          -1.8661    2.9732   -0.6233 C.3     1  UNL1       -0.0501
     10 C          -1.6559   -1.2286    0.6182 C.3     1  UNL1        0.0041
     11 C           0.8975    0.5245    0.6309 C.ar    1  UNL1       -0.0124
     12 C           1.6520    0.1796   -0.4905 C.ar    1  UNL1       -0.0141
     13 C           1.4327    0.3616    1.9086 C.ar    1  UNL1       -0.0556
     14 C          -3.0261   -3.1924    0.8132 C.3     1  UNL1       -0.0130
     15 C          -1.6590   -2.8704   -1.1360 C.3     1  UNL1       -0.0130
     16 C           2.9417   -0.3279   -0.3342 C.ar    1  UNL1        0.1204
     17 C           2.7225   -0.1461    2.0650 C.ar    1  UNL1       -0.0580
     18 C           3.4769   -0.4909    0.9436 C.ar    1  UNL1       -0.0199
     19 C           3.0700   -0.4718   -2.7046 C.3     1  UNL1        0.0788
     20 H          -1.0473   -0.2033   -1.1903 H       1  UNL1        0.0344
     21 H          -3.3813    0.8687    0.4666 H       1  UNL1        0.0269
     22 H          -3.5019   -0.0360   -1.0370 H       1  UNL1        0.0269
     23 H           0.0069    2.2290   -1.3406 H       1  UNL1        0.0296
     24 H           0.1220    3.1488    0.1552 H       1  UNL1        0.0296
     25 H          -3.7802    2.3801   -1.4131 H       1  UNL1        0.0265
     26 H          -2.4031    1.7277   -2.2967 H       1  UNL1        0.0265
     27 H          -1.7801    3.8607   -1.2607 H       1  UNL1        0.0266
     28 H          -2.3119    3.3059    0.3219 H       1  UNL1        0.0266
     29 H          -2.1571   -0.9549    1.5565 H       1  UNL1        0.0430
     30 H          -0.6904   -1.6614    0.9069 H       1  UNL1        0.0430
     31 H          -0.6449    2.2093    2.0741 H       1  UNL1        0.2106
     32 H           1.1957    0.3147   -1.4641 H       1  UNL1        0.0658
     33 H           0.8763    0.6123    2.8063 H       1  UNL1        0.0621
     34 H          -3.6767   -2.7076    1.5497 H       1  UNL1        0.0391
     35 H          -2.2501   -3.7507    1.3493 H       1  UNL1        0.0391
     36 H          -3.6527   -3.9069    0.2676 H       1  UNL1        0.0391
     37 H          -1.3114   -2.1738   -1.9042 H       1  UNL1        0.0391
     38 H          -2.2698   -3.6126   -1.6634 H       1  UNL1        0.0391
     39 H          -0.7883   -3.3876   -0.7163 H       1  UNL1        0.0391
     40 H           3.1392   -0.2746    3.0597 H       1  UNL1        0.0619
     41 H           4.4809   -0.8861    1.0717 H       1  UNL1        0.0654
     42 H           3.7971   -0.7891   -3.4593 H       1  UNL1        0.0660
     43 H           2.8552    0.5855   -2.8939 H       1  UNL1        0.0660
     44 H           2.1852   -1.1054   -2.8285 H       1  UNL1        0.0660
@<TRIPOS>BOND
     1     1     5    1
     2     1    31    1
     3     2    16    1
     4     2    19    1
     5     3    10    1
     6     3    14    1
     7     3    15    1
     8     4     5    1
     9     4     6    1
    10     4    10    1
    11     4    20    1
    12     5     7    1
    13     5    11    1
    14     6     8    1
    15     6    21    1
    16     6    22    1
    17     7     9    1
    18     7    23    1
    19     7    24    1
    20     8     9    1
    21     8    25    1
    22     8    26    1
    23     9    27    1
    24     9    28    1
    25    10    29    1
    26    10    30    1
    27    11    12   ar
    28    11    13   ar
    29    12    16   ar
    30    12    32    1
    31    13    17   ar
    32    13    33    1
    33    14    34    1
    34    14    35    1
    35    14    36    1
    36    15    37    1
    37    15    38    1
    38    15    39    1
    39    16    18   ar
    40    17    18   ar
    41    17    40    1
    42    18    41    1
    43    19    42    1
    44    19    43    1
    45    19    44    1
@<TRIPOS>MOLECULE
40424854
 38 39 0 0 0
SMALL
GASTEIGER

@<TRIPOS>ATOM
      1 O          -1.0036    0.3034   -1.7825 O.3     1  UNL1       -0.3836
      2 O           3.8122   -0.2185   -1.1745 O.3     1  UNL1       -0.4951
      3 N          -2.2659   -3.1277    0.4390 N.3     1  UNL1       -0.3296
      4 C          -1.0010    0.4249   -0.3519 C.3     1  UNL1        0.0950
      5 C          -1.8980   -0.7067    0.2446 C.3     1  UNL1        0.0043
      6 C          -1.5684    1.8241   -0.0076 C.3     1  UNL1       -0.0195
      7 C          -3.3877   -0.5089   -0.0987 C.3     1  UNL1       -0.0461
      8 C          -3.0510    1.9783   -0.3465 C.3     1  UNL1       -0.0501
      9 C          -3.8864    0.8775    0.2926 C.3     1  UNL1       -0.0526
     10 C          -1.4650   -2.1071   -0.2130 C.3     1  UNL1       -0.0011
     11 C           0.4478    0.3380    0.1504 C.ar    1  UNL1       -0.0124
     12 C           1.4848    0.0971   -0.7508 C.ar    1  UNL1       -0.0141
     13 C           0.7264    0.4991    1.5077 C.ar    1  UNL1       -0.0556
     14 C           2.8008    0.0174   -0.2947 C.ar    1  UNL1        0.1204
     15 C           2.0422    0.4192    1.9637 C.ar    1  UNL1       -0.0580
     16 C           3.0794    0.1786    1.0626 C.ar    1  UNL1       -0.0199
     17 C           5.1335   -0.2888   -0.6405 C.3     1  UNL1        0.0788
     18 H          -1.8191   -0.6663    1.3406 H       1  UNL1        0.0344
     19 H          -1.0102    2.6036   -0.5428 H       1  UNL1        0.0296
     20 H          -1.4554    2.0408    1.0617 H       1  UNL1        0.0296
     21 H          -4.0114   -1.2473    0.4184 H       1  UNL1        0.0269
     22 H          -3.5476   -0.6573   -1.1745 H       1  UNL1        0.0269
     23 H          -3.1844    1.9556   -1.4349 H       1  UNL1        0.0266
     24 H          -3.4062    2.9570   -0.0041 H       1  UNL1        0.0266
     25 H          -3.8575    0.9821    1.3842 H       1  UNL1        0.0265
     26 H          -4.9337    0.9898   -0.0103 H       1  UNL1        0.0265
     27 H          -0.4127   -2.2860    0.0303 H       1  UNL1        0.0426
     28 H          -1.5723   -2.2123   -1.2981 H       1  UNL1        0.0426
     29 H          -0.6787    1.1360   -2.1659 H       1  UNL1        0.2106
     30 H           1.3068   -0.0409   -1.8132 H       1  UNL1        0.0658
     31 H          -0.0632    0.6784    2.2316 H       1  UNL1        0.0621
     32 H          -2.1448   -3.0699    1.4493 H       1  UNL1        0.1182
     33 H          -1.9318   -4.0504    0.1638 H       1  UNL1        0.1182
     34 H           2.2580    0.5425    3.0211 H       1  UNL1        0.0619
     35 H           4.0774    0.1283    1.4844 H       1  UNL1        0.0654
     36 H           5.8109   -0.4821   -1.4787 H       1  UNL1        0.0660
     37 H           5.2415   -1.1260    0.0574 H       1  UNL1        0.0660
     38 H           5.4390    0.6645   -0.1959 H       1  UNL1        0.0660
@<TRIPOS>BOND
     1     1     4    1
     2     1    29    1
     3     2    14    1
     4     2    17    1
     5     3    10    1
     6     3    32    1
     7     3    33    1
     8     4     5    1
     9     4     6    1
    10     4    11    1
    11     5     7    1
    12     5    10    1
    13     5    18    1
    14     6     8    1
    15     6    19    1
    16     6    20    1
    17     7     9    1
    18     7    21    1
    19     7    22    1
    20     8     9    1
    21     8    23    1
    22     8    24    1
    23     9    25    1
    24     9    26    1
    25    10    27    1
    26    10    28    1
    27    11    12   ar
    28    11    13   ar
    29    12    14   ar
    30    12    30    1
    31    13    15   ar
    32    13    31    1
    33    14    16   ar
    34    15    16   ar
    35    15    34    1
    36    16    35    1
    37    17    36    1
    38    17    37    1
    39    17    38    1
@<TRIPOS>MOLECULE
46781195
 61 63 0 0 0
SMALL
GASTEIGER

@<TRIPOS>ATOM
      1 O          -3.0457   -0.5699   -2.1016 O.3     1  UNL1       -0.3836
      2 O           1.4381   -2.3148   -0.3070 O.3     1  UNL1       -0.4608
      3 O           2.0510   -0.0957   -0.7711 O.3     1  UNL1       -0.3221
      4 O           4.1808   -1.9611   -0.7614 O.3     1  UNL1       -0.3829
      5 O           5.7129   -0.5881    1.1024 O.3     1  UNL1       -0.3863
      6 O           4.6426    2.0725    0.6562 O.3     1  UNL1       -0.3860
      7 O           2.9810    3.2717   -1.1271 O.3     1  UNL1       -0.4788
      8 O           2.0073    1.7573   -2.5250 O.2     1  UNL1       -0.2480
      9 N          -1.9409    2.3984    1.6207 N.3     1  UNL1       -0.3080
     10 C          -2.6669    0.9524   -0.2274 C.3     1  UNL1        0.0048
     11 C          -3.1158   -0.4813   -0.6647 C.3     1  UNL1        0.0950
     12 C          -3.6544    2.0351   -0.7135 C.3     1  UNL1       -0.0461
     13 C          -4.5943   -0.7301   -0.2743 C.3     1  UNL1       -0.0195
     14 C          -5.0993    1.7498   -0.3163 C.3     1  UNL1       -0.0526
     15 C          -5.5474    0.3640   -0.7614 C.3     1  UNL1       -0.0501
     16 C          -2.4579    1.0835    1.2906 C.3     1  UNL1        0.0041
     17 C          -2.1385   -1.5562   -0.1773 C.ar    1  UNL1       -0.0124
     18 C          -0.7785   -1.4448   -0.4666 C.ar    1  UNL1       -0.0139
     19 C          -2.6088   -2.6464    0.5550 C.ar    1  UNL1       -0.0556
     20 C           3.5725   -1.5235    0.4574 C.3     1  UNL1        0.1455
     21 C           2.1139   -1.1575    0.1832 C.3     1  UNL1        0.2312
     22 C           4.3243   -0.2965    0.9722 C.3     1  UNL1        0.1157
     23 C           0.1114   -2.4235   -0.0235 C.ar    1  UNL1        0.1243
     24 C           4.1467    0.8929    0.0251 C.3     1  UNL1        0.1202
     25 C           2.6680    1.0998   -0.2991 C.3     1  UNL1        0.1869
     26 C          -2.2296    2.7380    3.0178 C.3     1  UNL1       -0.0130
     27 C          -0.4968    2.4688    1.3754 C.3     1  UNL1       -0.0130
     28 C          -1.7191   -3.6252    0.9977 C.ar    1  UNL1       -0.0580
     29 C          -0.3590   -3.5136    0.7087 C.ar    1  UNL1       -0.0198
     30 C           2.5025    2.0440   -1.4454 C.2     1  UNL1        0.3367
     31 H          -1.7213    1.1771   -0.7358 H       1  UNL1        0.0344
     32 H          -3.3694    3.0357   -0.3710 H       1  UNL1        0.0269
     33 H          -3.6045    2.0799   -1.8099 H       1  UNL1        0.0269
     34 H          -4.9460   -1.6756   -0.7080 H       1  UNL1        0.0296
     35 H          -4.6988   -0.8075    0.8151 H       1  UNL1        0.0296
     36 H          -5.2197    1.8466    0.7686 H       1  UNL1        0.0265
     37 H          -5.7549    2.5036   -0.7679 H       1  UNL1        0.0265
     38 H          -5.6069    0.3358   -1.8563 H       1  UNL1        0.0266
     39 H          -6.5578    0.1651   -0.3863 H       1  UNL1        0.0266
     40 H          -1.7921    0.3046    1.6806 H       1  UNL1        0.0430
     41 H          -3.4197    0.9189    1.7911 H       1  UNL1        0.0430
     42 H          -2.3097   -0.0191   -2.4169 H       1  UNL1        0.2106
     43 H          -0.4132   -0.6132   -1.0605 H       1  UNL1        0.0658
     44 H          -3.6546   -2.7830    0.8061 H       1  UNL1        0.0621
     45 H           3.6512   -2.3595    1.1601 H       1  UNL1        0.0683
     46 H           3.9605   -0.0289    1.9721 H       1  UNL1        0.0648
     47 H           1.6436   -0.8263    1.1209 H       1  UNL1        0.1084
     48 H           4.7408    0.7462   -0.8847 H       1  UNL1        0.0652
     49 H           2.1019    1.4908    0.5530 H       1  UNL1        0.0742
     50 H          -1.7744    2.0270    3.7169 H       1  UNL1        0.0391
     51 H          -1.8598    3.7419    3.2544 H       1  UNL1        0.0391
     52 H          -3.3110    2.7554    3.1944 H       1  UNL1        0.0391
     53 H          -0.1169    3.4655    1.6282 H       1  UNL1        0.0391
     54 H           0.0593    1.7342    1.9693 H       1  UNL1        0.0391
     55 H          -0.2579    2.3172    0.3191 H       1  UNL1        0.0391
     56 H          -2.0845   -4.4745    1.5677 H       1  UNL1        0.0619
     57 H           0.3295   -4.2789    1.0565 H       1  UNL1        0.0654
     58 H           3.9522   -1.3271   -1.4618 H       1  UNL1        0.2102
     59 H           5.7964   -1.3520    1.6983 H       1  UNL1        0.2100
     60 H           4.1287    2.2193    1.4686 H       1  UNL1        0.2100
     61 H           2.8824    3.9068   -1.8682 H       1  UNL1        0.2951
@<TRIPOS>BOND
     1     1    11    1
     2     1    42    1
     3     2    21    1
     4     2    23    1
     5     3    21    1
     6     3    25    1
     7     4    20    1
     8     4    58    1
     9     5    22    1
    10     5    59    1
    11     6    24    1
    12     6    60    1
    13     7    30    1
    14     7    61    1
    15     8    30    2
    16     9    16    1
    17     9    26    1
    18     9    27    1
    19    10    11    1
    20    10    12    1
    21    10    16    1
    22    10    31    1
    23    11    13    1
    24    11    17    1
    25    12    14    1
    26    12    32    1
    27    12    33    1
    28    13    15    1
    29    13    34    1
    30    13    35    1
    31    14    15    1
    32    14    36    1
    33    14    37    1
    34    15    38    1
    35    15    39    1
    36    16    40    1
    37    16    41    1
    38    17    18   ar
    39    17    19   ar
    40    18    23   ar
    41    18    43    1
    42    19    28   ar
    43    19    44    1
    44    20    21    1
    45    20    22    1
    46    20    45    1
    47    21    47    1
    48    22    24    1
    49    22    46    1
    50    23    29   ar
    51    24    25    1
    52    24    48    1
    53    25    30    1
    54    25    49    1
    55    26    50    1
    56    26    51    1
    57    26    52    1
    58    27    53    1
    59    27    54    1
    60    27    55    1
    61    28    29   ar
    62    28    56    1
    63    29    57    1
@<TRIPOS>MOLECULE
91284185
 44 45 0 0 0
SMALL
GASTEIGER

@<TRIPOS>ATOM
      1 O           0.6495    1.1227   -1.7272 O.3     1  UNL1       -0.3836
      2 O          -4.0208   -0.3405   -1.2223 O.3     1  UNL1       -0.4951
      3 N           2.4832   -2.3340    0.0056 N.3     1  UNL1       -0.3080
      4 C           1.7194   -0.0014    0.1177 C.3     1  UNL1        0.0048
      5 C           0.6175    1.0242   -0.2939 C.3     1  UNL1        0.0950
      6 C           3.1255    0.4986   -0.2710 C.3     1  UNL1       -0.0461
      7 C           0.9563    2.4287    0.2660 C.3     1  UNL1       -0.0195
      8 C           3.4163    1.8858    0.2920 C.3     1  UNL1       -0.0526
      9 C           2.3572    2.8959   -0.1291 C.3     1  UNL1       -0.0501
     10 C           1.5029   -1.3906   -0.5011 C.3     1  UNL1        0.0041
     11 C          -0.7747    0.5934    0.1833 C.ar    1  UNL1       -0.0124
     12 C          -1.7766    0.3182   -0.7475 C.ar    1  UNL1       -0.0141
     13 C          -1.0395    0.4774    1.5479 C.ar    1  UNL1       -0.0556
     14 C           2.6038   -3.4908   -0.8872 C.3     1  UNL1       -0.0130
     15 C           2.1305   -2.7775    1.3577 C.3     1  UNL1       -0.0130
     16 C          -3.0433   -0.0731   -0.3137 C.ar    1  UNL1        0.1204
     17 C          -2.3063    0.0864    1.9818 C.ar    1  UNL1       -0.0580
     18 C          -3.3081   -0.1892    1.0510 C.ar    1  UNL1       -0.0199
     19 C          -5.2930   -0.7343   -0.7100 C.3     1  UNL1        0.0788
     20 H           1.6976   -0.0783    1.2115 H       1  UNL1        0.0344
     21 H           3.2322    0.5240   -1.3631 H       1  UNL1        0.0269
     22 H           3.8990   -0.1818    0.1036 H       1  UNL1        0.0269
     23 H           0.8886    2.4429    1.3607 H       1  UNL1        0.0296
     24 H           0.2318    3.1664   -0.1033 H       1  UNL1        0.0296
     25 H           4.4016    2.2225   -0.0497 H       1  UNL1        0.0265
     26 H           3.4592    1.8343    1.3870 H       1  UNL1        0.0265
     27 H           2.5658    3.8637    0.3413 H       1  UNL1        0.0266
     28 H           2.4076    3.0548   -1.2129 H       1  UNL1        0.0266
     29 H           1.6043   -1.2954   -1.5908 H       1  UNL1        0.0430
     30 H           0.4850   -1.7584   -0.3239 H       1  UNL1        0.0430
     31 H           0.1443    1.9105   -1.9917 H       1  UNL1        0.2106
     32 H          -1.6031    0.3933   -1.8169 H       1  UNL1        0.0658
     33 H          -0.2752    0.6801    2.2924 H       1  UNL1        0.0621
     34 H           2.9305   -3.1757   -1.8845 H       1  UNL1        0.0391
     35 H           1.6572   -4.0342   -0.9872 H       1  UNL1        0.0391
     36 H           3.3650   -4.1862   -0.5161 H       1  UNL1        0.0391
     37 H           2.1432   -1.9539    2.0772 H       1  UNL1        0.0391
     38 H           2.8686   -3.5013    1.7227 H       1  UNL1        0.0391
     39 H           1.1444   -3.2552    1.3934 H       1  UNL1        0.0391
     40 H          -2.5111   -0.0051    3.0445 H       1  UNL1        0.0619
     41 H          -4.2685   -0.4883    1.4566 H       1  UNL1        0.0654
     42 H          -5.2304   -1.6802   -0.1613 H       1  UNL1        0.0660
     43 H          -5.9484   -0.9065   -1.5700 H       1  UNL1        0.0660
     44 H          -5.7507    0.0622   -0.1136 H       1  UNL1        0.0660
@<TRIPOS>BOND
     1     1     5    1
     2     1    31    1
     3     2    16    1
     4     2    19    1
     5     3    10    1
     6     3    14    1
     7     3    15    1
     8     4     5    1
     9     4     6    1
    10     4    10    1
    11     4    20    1
    12     5     7    1
    13     5    11    1
    14     6     8    1
    15     6    21    1
    16     6    22    1
    17     7     9    1
    18     7    23    1
    19     7    24    1
    20     8     9    1
    21     8    25    1
    22     8    26    1
    23     9    27    1
    24     9    28    1
    25    10    29    1
    26    10    30    1
    27    11    12   ar
    28    11    13   ar
    29    12    16   ar
    30    12    32    1
    31    13    17   ar
    32    13    33    1
    33    14    34    1
    34    14    35    1
    35    14    36    1
    36    15    37    1
    37    15    38    1
    38    15    39    1
    39    16    18   ar
    40    17    18   ar
    41    17    40    1
    42    18    41    1
    43    19    42    1
    44    19    43    1
    45    19    44    1
@<TRIPOS>MOLECULE
91747931
 41 42 0 0 0
SMALL
GASTEIGER

@<TRIPOS>ATOM
      1 O           0.3574    2.5351   -1.2424 O.3     1  UNL1       -0.3912
      2 O          -4.2231   -0.9509    1.5579 O.3     1  UNL1       -0.5068
      3 N           2.4722   -2.2118   -0.0987 N.3     1  UNL1       -0.3081
      4 C           1.4361    0.0136   -0.0004 C.3     1  UNL1       -0.0191
      5 C           0.2308    0.8477    0.5181 C.3     1  UNL1        0.0142
      6 C           0.3878    2.3474    0.1727 C.3     1  UNL1        0.0623
      7 C           2.7597    0.6068    0.5206 C.3     1  UNL1       -0.0483
      8 C           1.7119    2.8964    0.7082 C.3     1  UNL1       -0.0263
      9 C           2.9040    2.0903    0.1972 C.3     1  UNL1       -0.0504
     10 C           1.3483   -1.4569    0.4275 C.3     1  UNL1        0.0018
     11 C          -1.1374    0.3421    0.0776 C.ar    1  UNL1       -0.0381
     12 C          -2.0657   -0.0773    1.0306 C.ar    1  UNL1       -0.0166
     13 C          -1.4615    0.2980   -1.2785 C.ar    1  UNL1       -0.0580
     14 C           2.2492   -2.5669   -1.5035 C.3     1  UNL1       -0.0130
     15 C           2.7044   -3.4221    0.6951 C.3     1  UNL1       -0.0130
     16 C          -3.3181   -0.5408    0.6277 C.ar    1  UNL1        0.1171
     17 C          -2.7139   -0.1658   -1.6814 C.ar    1  UNL1       -0.0580
     18 C          -3.6423   -0.5849   -0.7284 C.ar    1  UNL1       -0.0202
     19 H           1.4449    0.0772   -1.0954 H       1  UNL1        0.0320
     20 H           0.2585    0.7838    1.6167 H       1  UNL1        0.0377
     21 H          -0.4452    2.9207    0.5974 H       1  UNL1        0.0599
     22 H           3.6200    0.0845    0.0863 H       1  UNL1        0.0269
     23 H           2.8248    0.4735    1.6085 H       1  UNL1        0.0269
     24 H           1.7011    2.8792    1.8047 H       1  UNL1        0.0290
     25 H           1.8378    3.9405    0.3980 H       1  UNL1        0.0290
     26 H           3.8255    2.4758    0.6486 H       1  UNL1        0.0266
     27 H           3.0052    2.2207   -0.8871 H       1  UNL1        0.0266
     28 H           0.3974   -1.9111    0.1230 H       1  UNL1        0.0429
     29 H           1.3551   -1.4820    1.5263 H       1  UNL1        0.0429
     30 H           0.4351    3.4891   -1.4137 H       1  UNL1        0.2098
     31 H          -1.8226   -0.0476    2.0898 H       1  UNL1        0.0657
     32 H          -0.7516    0.5790   -2.0493 H       1  UNL1        0.0620
     33 H           2.1602   -1.6798   -2.1377 H       1  UNL1        0.0391
     34 H           1.3514   -3.1813   -1.6386 H       1  UNL1        0.0391
     35 H           3.1059   -3.1296   -1.8922 H       1  UNL1        0.0391
     36 H           2.9392   -3.1628    1.7336 H       1  UNL1        0.0391
     37 H           3.5681   -3.9754    0.3100 H       1  UNL1        0.0391
     38 H           1.8353   -4.0900    0.6917 H       1  UNL1        0.0391
     39 H          -2.9631   -0.2090   -2.7377 H       1  UNL1        0.0619
     40 H          -4.6136   -0.9460   -1.0555 H       1  UNL1        0.0654
     41 H          -5.0333   -1.2391    1.1034 H       1  UNL1        0.2921
@<TRIPOS>BOND
     1     1     6    1
     2     1    30    1
     3     2    16    1
     4     2    41    1
     5     3    10    1
     6     3    14    1
     7     3    15    1
     8     4     5    1
     9     4     7    1
    10     4    10    1
    11     4    19    1
    12     5     6    1
    13     5    11    1
    14     5    20    1
    15     6     8    1
    16     6    21    1
    17     7     9    1
    18     7    22    1
    19     7    23    1
    20     8     9    1
    21     8    24    1
    22     8    25    1
    23     9    26    1
    24     9    27    1
    25    10    28    1
    26    10    29    1
    27    11    12   ar
    28    11    13   ar
    29    12    16   ar
    30    12    31    1
    31    13    17   ar
    32    13    32    1
    33    14    33    1
    34    14    34    1
    35    14    35    1
    36    15    36    1
    37    15    37    1
    38    15    38    1
    39    16    18   ar
    40    17    18   ar
    41    17    39    1
    42    18    40    1
@<TRIPOS>MOLECULE
44407381
 41 42 0 0 0
SMALL
GASTEIGER

@<TRIPOS>ATOM
      1 O          -0.6801    1.3210    1.7543 O.3     1  UNL1       -0.3836
      2 O           3.6077   -0.6993   -2.0651 O.3     1  UNL1       -0.5068
      3 N          -2.3660   -2.1539   -0.0888 N.3     1  UNL1       -0.3080
      4 C          -1.3394    0.0755   -0.2018 C.3     1  UNL1        0.0048
      5 C          -0.2780    1.0473    0.4022 C.3     1  UNL1        0.0950
      6 C          -2.7318    0.7353   -0.2675 C.3     1  UNL1       -0.0461
      7 C          -0.2928    2.3971   -0.3586 C.3     1  UNL1       -0.0195
      8 C          -2.7017    2.0635   -1.0164 C.3     1  UNL1       -0.0526
      9 C          -1.6856    3.0247   -0.4139 C.3     1  UNL1       -0.0501
     10 C          -1.4557   -1.2417    0.5799 C.3     1  UNL1        0.0041
     11 C           1.1326    0.4465    0.3731 C.ar    1  UNL1       -0.0124
     12 C           1.7365    0.1438   -0.8474 C.ar    1  UNL1       -0.0143
     13 C           1.8115    0.2021    1.5669 C.ar    1  UNL1       -0.0556
     14 C          -2.8514   -3.1799    0.8392 C.3     1  UNL1       -0.0130
     15 C          -1.7178   -2.7860   -1.2421 C.3     1  UNL1       -0.0130
     16 C           3.0194   -0.4032   -0.8741 C.ar    1  UNL1        0.1172
     17 C           3.0942   -0.3452    1.5403 C.ar    1  UNL1       -0.0580
     18 C           3.6983   -0.6477    0.3198 C.ar    1  UNL1       -0.0202
     19 H          -1.0354   -0.1349   -1.2344 H       1  UNL1        0.0344
     20 H          -3.1226    0.9016    0.7446 H       1  UNL1        0.0269
     21 H          -3.4494    0.0818   -0.7770 H       1  UNL1        0.0269
     22 H           0.0660    2.2733   -1.3876 H       1  UNL1        0.0296
     23 H           0.3858    3.1106    0.1270 H       1  UNL1        0.0296
     24 H          -3.6975    2.5206   -0.9950 H       1  UNL1        0.0265
     25 H          -2.4563    1.8835   -2.0703 H       1  UNL1        0.0265
     26 H          -1.6493    3.9424   -1.0121 H       1  UNL1        0.0266
     27 H          -2.0052    3.3174    0.5934 H       1  UNL1        0.0266
     28 H          -1.8328   -1.0070    1.5846 H       1  UNL1        0.0430
     29 H          -0.4762   -1.7125    0.7277 H       1  UNL1        0.0430
     30 H          -0.1752    2.0879    2.0750 H       1  UNL1        0.2106
     31 H           1.2213    0.3210   -1.7876 H       1  UNL1        0.0658
     32 H           1.3742    0.4179    2.5368 H       1  UNL1        0.0621
     33 H          -3.3944   -2.7202    1.6726 H       1  UNL1        0.0391
     34 H          -2.0342   -3.7847    1.2487 H       1  UNL1        0.0391
     35 H          -3.5599   -3.8487    0.3378 H       1  UNL1        0.0391
     36 H          -1.4440   -2.0574   -2.0105 H       1  UNL1        0.0391
     37 H          -2.4091   -3.4841   -1.7285 H       1  UNL1        0.0391
     38 H          -0.8191   -3.3455   -0.9574 H       1  UNL1        0.0391
     39 H           3.6226   -0.5372    2.4696 H       1  UNL1        0.0619
     40 H           4.6978   -1.0740    0.3127 H       1  UNL1        0.0654
     41 H           4.4913   -1.0693   -1.8965 H       1  UNL1        0.2921
@<TRIPOS>BOND
     1     1     5    1
     2     1    30    1
     3     2    16    1
     4     2    41    1
     5     3    10    1
     6     3    14    1
     7     3    15    1
     8     4     5    1
     9     4     6    1
    10     4    10    1
    11     4    19    1
    12     5     7    1
    13     5    11    1
    14     6     8    1
    15     6    20    1
    16     6    21    1
    17     7     9    1
    18     7    22    1
    19     7    23    1
    20     8     9    1
    21     8    24    1
    22     8    25    1
    23     9    26    1
    24     9    27    1
    25    10    28    1
    26    10    29    1
    27    11    12   ar
    28    11    13   ar
    29    12    16   ar
    30    12    31    1
    31    13    17   ar
    32    13    32    1
    33    14    33    1
    34    14    34    1
    35    14    35    1
    36    15    36    1
    37    15    37    1
    38    15    38    1
    39    16    18   ar
    40    17    18   ar
    41    17    39    1
    42    18    40    1
@<TRIPOS>MOLECULE
133688069
 41 42 0 0 0
SMALL
GASTEIGER

@<TRIPOS>ATOM
      1 O          -1.2849    0.6616   -1.9348 O.3     1  UNL1       -0.3836
      2 O           3.6479   -0.0940    1.5127 O.3     1  UNL1       -0.4951
      3 N          -2.4353   -2.4060    0.8162 N.3     1  UNL1       -0.3186
      4 C          -1.5748   -0.1547    0.3410 C.3     1  UNL1        0.0045
      5 C          -0.7152    0.7292   -0.6186 C.3     1  UNL1        0.0950
      6 C          -0.7426    2.2143   -0.1807 C.3     1  UNL1       -0.0195
      7 C          -2.9838    0.4297    0.5630 C.3     1  UNL1       -0.0461
      8 C          -2.1546    2.7546    0.0455 C.3     1  UNL1       -0.0501
      9 C          -2.9355    1.8833    1.0197 C.3     1  UNL1       -0.0526
     10 C          -1.7102   -1.6027   -0.1518 C.3     1  UNL1        0.0014
     11 C           0.7446    0.2569   -0.6854 C.ar    1  UNL1       -0.0124
     12 C           1.5430    0.2955    0.4578 C.ar    1  UNL1       -0.0141
     13 C           1.2724   -0.2100   -1.8893 C.ar    1  UNL1       -0.0556
     14 C           2.8692   -0.1329    0.3972 C.ar    1  UNL1        0.1204
     15 C           2.5986   -0.6381   -1.9500 C.ar    1  UNL1       -0.0580
     16 C          -2.5797   -3.7819    0.3548 C.3     1  UNL1       -0.0158
     17 C           3.3970   -0.5998   -0.8067 C.ar    1  UNL1       -0.0199
     18 C           3.0438    0.3948    2.7094 C.3     1  UNL1        0.0788
     19 H          -1.0839   -0.1740    1.3247 H       1  UNL1        0.0344
     20 H          -0.1823    2.3654    0.7495 H       1  UNL1        0.0296
     21 H          -0.2574    2.8363   -0.9447 H       1  UNL1        0.0296
     22 H          -3.5231   -0.1394    1.3295 H       1  UNL1        0.0269
     23 H          -3.5813    0.3560   -0.3540 H       1  UNL1        0.0269
     24 H          -2.6919    2.8196   -0.9077 H       1  UNL1        0.0266
     25 H          -2.0938    3.7767    0.4374 H       1  UNL1        0.0266
     26 H          -2.4729    1.9393    2.0129 H       1  UNL1        0.0265
     27 H          -3.9556    2.2707    1.1219 H       1  UNL1        0.0265
     28 H          -0.7164   -2.0371   -0.3094 H       1  UNL1        0.0428
     29 H          -2.2339   -1.6200   -1.1154 H       1  UNL1        0.0428
     30 H          -2.2085    0.9566   -1.8996 H       1  UNL1        0.2106
     31 H          -1.9423   -2.3996    1.7087 H       1  UNL1        0.1216
     32 H           1.0912    0.6543    1.3750 H       1  UNL1        0.0658
     33 H           0.6846   -0.2597   -2.8007 H       1  UNL1        0.0621
     34 H           3.0099   -1.0024   -2.8869 H       1  UNL1        0.0619
     35 H          -1.6061   -4.2632    0.2161 H       1  UNL1        0.0388
     36 H          -3.1404   -3.8280   -0.5844 H       1  UNL1        0.0388
     37 H          -3.1374   -4.3582    1.0994 H       1  UNL1        0.0388
     38 H           4.4292   -0.9348   -0.8601 H       1  UNL1        0.0654
     39 H           3.8067    0.3579    3.4940 H       1  UNL1        0.0660
     40 H           2.2195   -0.2483    3.0364 H       1  UNL1        0.0660
     41 H           2.7406    1.4426    2.6093 H       1  UNL1        0.0660
@<TRIPOS>BOND
     1     1     5    1
     2     1    30    1
     3     2    14    1
     4     2    18    1
     5     3    10    1
     6     3    16    1
     7     3    31    1
     8     4     5    1
     9     4     7    1
    10     4    10    1
    11     4    19    1
    12     5     6    1
    13     5    11    1
    14     6     8    1
    15     6    20    1
    16     6    21    1
    17     7     9    1
    18     7    22    1
    19     7    23    1
    20     8     9    1
    21     8    24    1
    22     8    25    1
    23     9    26    1
    24     9    27    1
    25    10    28    1
    26    10    29    1
    27    11    12   ar
    28    11    13   ar
    29    12    14   ar
    30    12    32    1
    31    13    15   ar
    32    13    33    1
    33    14    17   ar
    34    15    17   ar
    35    15    34    1
    36    16    35    1
    37    16    36    1
    38    16    37    1
    39    17    38    1
    40    18    39    1
    41    18    40    1
    42    18    41    1
@<TRIPOS>MOLECULE
5523
 44 45 0 0 0
SMALL
GASTEIGER

@<TRIPOS>ATOM
      1 O          -0.4836    1.2560   -1.6525 O.3     1  UNL1       -0.3836
      2 O           4.2921    0.1866   -0.9419 O.3     1  UNL1       -0.4951
      3 N          -2.8601   -2.0324   -0.3341 N.3     1  UNL1       -0.3080
      4 C          -1.7425    0.0942    0.0783 C.3     1  UNL1        0.0048
      5 C          -0.5091    0.9985   -0.2402 C.3     1  UNL1        0.0950
      6 C          -3.0775    0.8322   -0.1439 C.3     1  UNL1       -0.0461
      7 C          -0.6234    2.3674    0.4749 C.3     1  UNL1       -0.0195
      8 C          -3.1325    2.1559    0.6104 C.3     1  UNL1       -0.0526
      9 C          -1.9653    3.0624    0.2444 C.3     1  UNL1       -0.0501
     10 C          -1.7512   -1.2043   -0.7416 C.3     1  UNL1        0.0041
     11 C           0.8141    0.3333    0.1664 C.ar    1  UNL1       -0.0124
     12 C           1.9636    0.5670   -0.5822 C.ar    1  UNL1       -0.0141
     13 C           0.8546   -0.4988    1.2809 C.ar    1  UNL1       -0.0556
     14 C          -2.7657   -2.3825    1.0900 C.3     1  UNL1       -0.0130
     15 C          -2.9322   -3.2581   -1.1412 C.3     1  UNL1       -0.0130
     16 C           3.1652   -0.0372   -0.2125 C.ar    1  UNL1        0.1204
     17 C           2.0561   -1.1032    1.6504 C.ar    1  UNL1       -0.0580
     18 C           3.2115   -0.8724    0.9036 C.ar    1  UNL1       -0.0199
     19 C           5.4859   -0.4644   -0.5090 C.3     1  UNL1        0.0788
     20 H          -1.7185   -0.1093    1.1507 H       1  UNL1        0.0344
     21 H          -3.9304    0.2276    0.1843 H       1  UNL1        0.0269
     22 H          -3.2235    1.0259   -1.2146 H       1  UNL1        0.0269
     23 H           0.1726    3.0400    0.1295 H       1  UNL1        0.0296
     24 H          -0.4811    2.2369    1.5560 H       1  UNL1        0.0296
     25 H          -3.1230    1.9630    1.6902 H       1  UNL1        0.0265
     26 H          -4.0762    2.6665    0.3869 H       1  UNL1        0.0265
     27 H          -2.0491    3.3625   -0.8071 H       1  UNL1        0.0266
     28 H          -2.0100    3.9805    0.8410 H       1  UNL1        0.0266
     29 H          -0.8037   -1.7459   -0.6377 H       1  UNL1        0.0430
     30 H          -1.8586   -0.9597   -1.8059 H       1  UNL1        0.0430
     31 H          -0.2012    0.4485   -2.1142 H       1  UNL1        0.2106
     32 H           1.9553    1.2258   -1.4461 H       1  UNL1        0.0658
     33 H          -0.0003   -0.6877    1.9180 H       1  UNL1        0.0621
     34 H          -3.0207   -1.5446    1.7448 H       1  UNL1        0.0391
     35 H          -1.7769   -2.7710    1.3598 H       1  UNL1        0.0391
     36 H          -3.5019   -3.1571    1.3391 H       1  UNL1        0.0391
     37 H          -3.0332   -3.0116   -2.2041 H       1  UNL1        0.0391
     38 H          -3.8167   -3.8459   -0.8715 H       1  UNL1        0.0391
     39 H          -2.0436   -3.8870   -1.0143 H       1  UNL1        0.0391
     40 H           2.0935   -1.7474    2.5242 H       1  UNL1        0.0619
     41 H           4.1106   -1.3721    1.2475 H       1  UNL1        0.0654
     42 H           6.2817   -0.1751   -1.2033 H       1  UNL1        0.0660
     43 H           5.3930   -1.5543   -0.5654 H       1  UNL1        0.0660
     44 H           5.7911   -0.1245    0.4865 H       1  UNL1        0.0660
@<TRIPOS>BOND
     1     1     5    1
     2     1    31    1
     3     2    16    1
     4     2    19    1
     5     3    10    1
     6     3    14    1
     7     3    15    1
     8     4     5    1
     9     4     6    1
    10     4    10    1
    11     4    20    1
    12     5     7    1
    13     5    11    1
    14     6     8    1
    15     6    21    1
    16     6    22    1
    17     7     9    1
    18     7    23    1
    19     7    24    1
    20     8     9    1
    21     8    25    1
    22     8    26    1
    23     9    27    1
    24     9    28    1
    25    10    29    1
    26    10    30    1
    27    11    12   ar
    28    11    13   ar
    29    12    16   ar
    30    12    32    1
    31    13    17   ar
    32    13    33    1
    33    14    34    1
    34    14    35    1
    35    14    36    1
    36    15    37    1
    37    15    38    1
    38    15    39    1
    39    16    18   ar
    40    17    18   ar
    41    17    40    1
    42    18    41    1
    43    19    42    1
    44    19    43    1
    45    19    44    1
@<TRIPOS>MOLECULE
10354700
 41 42 0 0 0
SMALL
GASTEIGER

@<TRIPOS>ATOM
      1 O          -1.2835    0.6666   -1.9338 O.3     1  UNL1       -0.3836
      2 O           3.6434   -0.0962    1.5119 O.3     1  UNL1       -0.4951
      3 N          -2.4321   -2.4100    0.8085 N.3     1  UNL1       -0.3186
      4 C          -1.5731   -0.1568    0.3397 C.3     1  UNL1        0.0045
      5 C          -0.7142    0.7305   -0.6172 C.3     1  UNL1        0.0950
      6 C          -0.7429    2.2144   -0.1753 C.3     1  UNL1       -0.0195
      7 C          -2.9826    0.4258    0.5639 C.3     1  UNL1       -0.0461
      8 C          -2.1554    2.7528    0.0521 C.3     1  UNL1       -0.0501
      9 C          -2.9353    1.8784    1.0242 C.3     1  UNL1       -0.0526
     10 C          -1.7077   -1.6035   -0.1573 C.3     1  UNL1        0.0014
     11 C           0.7460    0.2592   -0.6850 C.ar    1  UNL1       -0.0124
     12 C           1.5379    0.2967    0.4586 C.ar    1  UNL1       -0.0141
     13 C           1.2676   -0.2018   -1.8899 C.ar    1  UNL1       -0.0556
     14 C           2.8641   -0.1312    0.3968 C.ar    1  UNL1        0.1204
     15 C           2.5936   -0.6297   -1.9518 C.ar    1  UNL1       -0.0580
     16 C          -2.5579   -3.7894    0.3523 C.3     1  UNL1       -0.0158
     17 C           3.3918   -0.5944   -0.8084 C.ar    1  UNL1       -0.0199
     18 C           3.0404    0.3886    2.7107 C.3     1  UNL1        0.0788
     19 H          -1.0834   -0.1807    1.3239 H       1  UNL1        0.0344
     20 H          -0.2582    2.8386   -0.9379 H       1  UNL1        0.0296
     21 H          -0.1830    2.3642    0.7555 H       1  UNL1        0.0296
     22 H          -3.5289   -0.1246    1.3364 H       1  UNL1        0.0269
     23 H          -3.5718    0.3571   -0.3594 H       1  UNL1        0.0269
     24 H          -2.6888    2.8033   -0.9050 H       1  UNL1        0.0266
     25 H          -2.1006    3.7770    0.4385 H       1  UNL1        0.0266
     26 H          -2.4729    1.9329    2.0175 H       1  UNL1        0.0265
     27 H          -3.9558    2.2649    1.1265 H       1  UNL1        0.0265
     28 H          -0.7132   -2.0359   -0.3133 H       1  UNL1        0.0428
     29 H          -2.2414   -1.6357   -1.1139 H       1  UNL1        0.0428
     30 H          -1.3195   -0.2555   -2.2329 H       1  UNL1        0.2106
     31 H          -3.3736   -2.0475    0.9431 H       1  UNL1        0.1216
     32 H           1.0858    0.6525    1.3766 H       1  UNL1        0.0658
     33 H           0.6923   -0.2422   -2.8086 H       1  UNL1        0.0621
     34 H           3.0060   -0.9887   -2.8902 H       1  UNL1        0.0619
     35 H          -1.5754   -4.2539    0.2195 H       1  UNL1        0.0388
     36 H          -3.1152   -3.8529   -0.5881 H       1  UNL1        0.0388
     37 H          -3.0983   -4.3733    1.1039 H       1  UNL1        0.0388
     38 H           4.4244   -0.9285   -0.8630 H       1  UNL1        0.0654
     39 H           3.8038    0.3490    3.4946 H       1  UNL1        0.0660
     40 H           2.2162   -0.2553    3.0360 H       1  UNL1        0.0660
     41 H           2.7371    1.4367    2.6142 H       1  UNL1        0.0660
@<TRIPOS>BOND
     1     1     5    1
     2     1    30    1
     3     2    14    1
     4     2    18    1
     5     3    10    1
     6     3    16    1
     7     3    31    1
     8     4     5    1
     9     4     7    1
    10     4    10    1
    11     4    19    1
    12     5     6    1
    13     5    11    1
    14     6     8    1
    15     6    20    1
    16     6    21    1
    17     7     9    1
    18     7    22    1
    19     7    23    1
    20     8     9    1
    21     8    24    1
    22     8    25    1
    23     9    26    1
    24     9    27    1
    25    10    28    1
    26    10    29    1
    27    11    12   ar
    28    11    13   ar
    29    12    14   ar
    30    12    32    1
    31    13    15   ar
    32    13    33    1
    33    14    17   ar
    34    15    17   ar
    35    15    34    1
    36    16    35    1
    37    16    36    1
    38    16    37    1
    39    17    38    1
    40    18    39    1
    41    18    40    1
    42    18    41    1
@<TRIPOS>MOLECULE
40463214
 41 42 0 0 0
SMALL
GASTEIGER

@<TRIPOS>ATOM
      1 O          -0.6024    1.6319   -1.5990 O.3     1  UNL1       -0.3836
      2 O           3.8184   -0.9396   -0.7754 O.3     1  UNL1       -0.4951
      3 N          -1.9689   -2.6625    0.3162 N.3     1  UNL1       -0.3186
      4 C          -1.4128   -0.4504   -0.5942 C.3     1  UNL1        0.0045
      5 C          -0.7140    0.9265   -0.3452 C.3     1  UNL1        0.0950
      6 C          -1.6121    1.8288    0.5369 C.3     1  UNL1       -0.0195
      7 C          -2.8384   -0.2560   -1.1518 C.3     1  UNL1       -0.0461
      8 C          -3.0228    1.9979   -0.0335 C.3     1  UNL1       -0.0501
      9 C          -3.6998    0.6566   -0.2841 C.3     1  UNL1       -0.0526
     10 C          -1.4441   -1.3513    0.6502 C.3     1  UNL1        0.0014
     11 C           0.7207    0.7659    0.1628 C.ar    1  UNL1       -0.0124
     12 C           1.6264   -0.0237   -0.5457 C.ar    1  UNL1       -0.0141
     13 C           1.1226    1.4081    1.3340 C.ar    1  UNL1       -0.0556
     14 C           2.9341   -0.1709   -0.0828 C.ar    1  UNL1        0.1204
     15 C           2.4302    1.2606    1.7969 C.ar    1  UNL1       -0.0580
     16 C          -2.0138   -3.5258    1.4909 C.3     1  UNL1       -0.0158
     17 C           3.3360    0.4712    1.0884 C.ar    1  UNL1       -0.0199
     18 C           3.3406   -1.5672   -1.9645 C.3     1  UNL1        0.0788
     19 H          -0.8651   -0.9854   -1.3828 H       1  UNL1        0.0344
     20 H          -1.1815    2.8360    0.6143 H       1  UNL1        0.0296
     21 H          -1.6937    1.4261    1.5540 H       1  UNL1        0.0296
     22 H          -3.3508   -1.2139   -1.2940 H       1  UNL1        0.0269
     23 H          -2.7663    0.1868   -2.1541 H       1  UNL1        0.0269
     24 H          -2.9791    2.5661   -0.9707 H       1  UNL1        0.0266
     25 H          -3.6292    2.5896    0.6620 H       1  UNL1        0.0266
     26 H          -3.9219    0.1700    0.6723 H       1  UNL1        0.0265
     27 H          -4.6642    0.8237   -0.7778 H       1  UNL1        0.0265
     28 H          -2.0481   -0.8951    1.4419 H       1  UNL1        0.0428
     29 H          -0.4317   -1.4717    1.0513 H       1  UNL1        0.0428
     30 H          -0.3641    0.9936   -2.2924 H       1  UNL1        0.2106
     31 H          -1.3861   -3.0965   -0.3991 H       1  UNL1        0.1216
     32 H           1.2786   -0.4912   -1.4589 H       1  UNL1        0.0658
     33 H           0.4599    2.0313    1.9236 H       1  UNL1        0.0621
     34 H           2.7438    1.7601    2.7090 H       1  UNL1        0.0619
     35 H          -2.6650   -3.1075    2.2652 H       1  UNL1        0.0388
     36 H          -1.0150   -3.6868    1.9096 H       1  UNL1        0.0388
     37 H          -2.4224   -4.5013    1.2094 H       1  UNL1        0.0388
     38 H           4.3532    0.3604    1.4537 H       1  UNL1        0.0654
     39 H           4.1736   -2.1420   -2.3827 H       1  UNL1        0.0660
     40 H           3.0513   -0.8297   -2.7208 H       1  UNL1        0.0660
     41 H           2.5378   -2.2807   -1.7494 H       1  UNL1        0.0660
@<TRIPOS>BOND
     1     1     5    1
     2     1    30    1
     3     2    14    1
     4     2    18    1
     5     3    10    1
     6     3    16    1
     7     3    31    1
     8     4     5    1
     9     4     7    1
    10     4    10    1
    11     4    19    1
    12     5     6    1
    13     5    11    1
    14     6     8    1
    15     6    20    1
    16     6    21    1
    17     7     9    1
    18     7    22    1
    19     7    23    1
    20     8     9    1
    21     8    24    1
    22     8    25    1
    23     9    26    1
    24     9    27    1
    25    10    28    1
    26    10    29    1
    27    11    12   ar
    28    11    13   ar
    29    12    14   ar
    30    12    32    1
    31    13    15   ar
    32    13    33    1
    33    14    17   ar
    34    15    17   ar
    35    15    34    1
    36    16    35    1
    37    16    36    1
    38    16    37    1
    39    17    38    1
    40    18    39    1
    41    18    40    1
    42    18    41    1
@<TRIPOS>MOLECULE
91693836
 56 57 0 0 0
SMALL
GASTEIGER

@<TRIPOS>ATOM
      1 SI          0.1993    2.7931    0.0938 Si      1  UNL1        0.0000
      2 O          -0.6391    1.4216    0.5690 O.3     1  UNL1        0.0000
      3 O           4.3313   -1.1868   -0.4531 O.3     1  UNL1        0.0000
      4 N          -4.0471   -0.9431    0.4611 N.3     1  UNL1        0.0000
      5 C          -0.3911    0.1703   -0.0996 C.3     1  UNL1        0.0000
      6 C          -1.6103   -0.7767    0.1692 C.3     1  UNL1        0.0000
      7 C          -0.3227    0.5036   -1.6135 C.3     1  UNL1        0.0000
      8 C          -1.5656   -2.0151   -0.7430 C.3     1  UNL1        0.0000
      9 C          -0.3537   -0.7186   -2.5335 C.3     1  UNL1        0.0000
     10 C          -1.5158   -1.6522   -2.2233 C.3     1  UNL1        0.0000
     11 C          -2.9685   -0.0618    0.0513 C.3     1  UNL1        0.0000
     12 C           0.9030   -0.3704    0.5290 C.ar    1  UNL1        0.0000
     13 C           2.0440   -0.5346   -0.2563 C.ar    1  UNL1        0.0000
     14 C           0.9363   -0.6977    1.8847 C.ar    1  UNL1        0.0000
     15 C           1.9918    2.3454   -0.2757 C.3     1  UNL1        0.0000
     16 C           0.1940    4.0991    1.4478 C.3     1  UNL1        0.0000
     17 C          -0.5452    3.5418   -1.4628 C.3     1  UNL1        0.0000
     18 C          -5.3310   -0.4803   -0.0744 C.3     1  UNL1        0.0000
     19 C          -4.1170   -1.0373    1.9225 C.3     1  UNL1        0.0000
     20 C           3.2185   -1.0258    0.3139 C.ar    1  UNL1        0.0000
     21 C           2.1107   -1.1892    2.4548 C.ar    1  UNL1        0.0000
     22 C           3.2518   -1.3531    1.6695 C.ar    1  UNL1        0.0000
     23 C           4.2264   -0.8324   -1.8314 C.3     1  UNL1        0.0000
     24 H          -1.5333   -1.1408    1.1969 H       1  UNL1        0.0000
     25 H           0.5369    1.0698   -1.9585 H       1  UNL1        0.0000
     26 H          -1.2100    1.0869   -1.8927 H       1  UNL1        0.0000
     27 H          -2.4173   -2.6794   -0.5591 H       1  UNL1        0.0000
     28 H          -0.6740   -2.6067   -0.4973 H       1  UNL1        0.0000
     29 H           0.5757   -1.2921   -2.4732 H       1  UNL1        0.0000
     30 H          -0.4330   -0.3844   -3.5754 H       1  UNL1        0.0000
     31 H          -2.4583   -1.1895   -2.5360 H       1  UNL1        0.0000
     32 H          -1.4134   -2.5674   -2.8184 H       1  UNL1        0.0000
     33 H          -3.1179    0.2598   -0.9855 H       1  UNL1        0.0000
     34 H          -2.9876    0.8583    0.6488 H       1  UNL1        0.0000
     35 H           2.0096   -0.3003   -1.3064 H       1  UNL1        0.0000
     36 H           0.0710   -0.5552    2.5254 H       1  UNL1        0.0000
     37 H           2.5208    3.3039   -0.3688 H       1  UNL1        0.0000
     38 H           2.1947    1.8528   -1.2233 H       1  UNL1        0.0000
     39 H           2.4777    1.8548    0.5695 H       1  UNL1        0.0000
     40 H           0.6521    3.7061    2.3602 H       1  UNL1        0.0000
     41 H           0.7552    4.9840    1.1337 H       1  UNL1        0.0000
     42 H          -0.8301    4.4048    1.6810 H       1  UNL1        0.0000
     43 H          -0.3299    4.6152   -1.4882 H       1  UNL1        0.0000
     44 H          -0.1391    3.1190   -2.3848 H       1  UNL1        0.0000
     45 H          -1.6330    3.4243   -1.4662 H       1  UNL1        0.0000
     46 H          -5.3096   -0.4683   -1.1700 H       1  UNL1        0.0000
     47 H          -5.5864    0.5253    0.2791 H       1  UNL1        0.0000
     48 H          -6.1375   -1.1641    0.2130 H       1  UNL1        0.0000
     49 H          -3.2231   -1.4982    2.3519 H       1  UNL1        0.0000
     50 H          -4.9516   -1.6837    2.2190 H       1  UNL1        0.0000
     51 H          -4.2665   -0.0595    2.3951 H       1  UNL1        0.0000
     52 H           2.1386   -1.4382    3.5116 H       1  UNL1        0.0000
     53 H           4.1640   -1.7349    2.1196 H       1  UNL1        0.0000
     54 H           5.2034   -1.0251   -2.2870 H       1  UNL1        0.0000
     55 H           4.0237    0.2360   -1.9606 H       1  UNL1        0.0000
     56 H           3.5029   -1.4642   -2.3579 H       1  UNL1        0.0000
@<TRIPOS>BOND
     1     1     2    1
     2     1    15    1
     3     1    16    1
     4     1    17    1
     5     2     5    1
     6     3    20    1
     7     3    23    1
     8     4    11    1
     9     4    18    1
    10     4    19    1
    11     5     6    1
    12     5     7    1
    13     5    12    1
    14     6     8    1
    15     6    11    1
    16     6    24    1
    17     7     9    1
    18     7    25    1
    19     7    26    1
    20     8    10    1
    21     8    27    1
    22     8    28    1
    23     9    10    1
    24     9    29    1
    25     9    30    1
    26    10    31    1
    27    10    32    1
    28    11    33    1
    29    11    34    1
    30    12    13   ar
    31    12    14   ar
    32    13    20   ar
    33    13    35    1
    34    14    21   ar
    35    14    36    1
    36    15    37    1
    37    15    38    1
    38    15    39    1
    39    16    40    1
    40    16    41    1
    41    16    42    1
    42    17    43    1
    43    17    44    1
    44    17    45    1
    45    18    46    1
    46    18    47    1
    47    18    48    1
    48    19    49    1
    49    19    50    1
    50    19    51    1
    51    20    22   ar
    52    21    22   ar
    53    21    52    1
    54    22    53    1
    55    23    54    1
    56    23    55    1
    57    23    56    1
@<TRIPOS>MOLECULE
91709651
 65 66 0 0 0
SMALL
GASTEIGER

@<TRIPOS>ATOM
      1 SI          1.3907   -2.5586   -1.2830 Si      1  UNL1        0.0000
      2 SI         -4.7272    0.5350   -0.2225 Si      1  UNL1        0.0000
      3 O           0.5420   -1.1286   -1.0716 O.3     1  UNL1        0.0000
      4 O           3.6840    2.9596   -0.9456 O.3     1  UNL1        0.0000
      5 N          -3.0437    0.9007   -0.5794 N.3     1  UNL1        0.0000
      6 C           0.4397   -0.5513    0.2439 C.3     1  UNL1        0.0000
      7 C          -0.7737    0.4403    0.2487 C.3     1  UNL1        0.0000
      8 C           0.1421   -1.7328    1.2047 C.3     1  UNL1        0.0000
      9 C          -1.1336    0.8734    1.6806 C.3     1  UNL1        0.0000
     10 C          -2.0108   -0.1148   -0.4801 C.3     1  UNL1        0.0000
     11 C          -0.2902   -1.3126    2.6110 C.3     1  UNL1        0.0000
     12 C          -1.4362   -0.3102    2.5932 C.3     1  UNL1        0.0000
     13 C           1.7747    0.1769    0.4669 C.ar    1  UNL1        0.0000
     14 C           2.1278    1.2514   -0.3496 C.ar    1  UNL1        0.0000
     15 C           2.6337   -0.2371    1.4851 C.ar    1  UNL1        0.0000
     16 C          -2.7121    1.8056   -1.7025 C.3     1  UNL1        0.0000
     17 C           0.3585   -4.0456   -0.7718 C.3     1  UNL1        0.0000
     18 C           2.9462   -2.5369   -0.2199 C.3     1  UNL1        0.0000
     19 C           1.9153   -2.7817   -3.0757 C.3     1  UNL1        0.0000
     20 C          -4.8671   -0.0819    1.5409 C.3     1  UNL1        0.0000
     21 C          -5.3237   -0.7877   -1.4042 C.3     1  UNL1        0.0000
     22 C          -5.7791    2.0738   -0.4111 C.3     1  UNL1        0.0000
     23 C           3.3397    1.9120   -0.1479 C.ar    1  UNL1        0.0000
     24 C           3.8456    0.4233    1.6866 C.ar    1  UNL1        0.0000
     25 C           4.1986    1.4981    0.8703 C.ar    1  UNL1        0.0000
     26 C           2.7588    3.3295   -1.9669 C.3     1  UNL1        0.0000
     27 H          -0.4718    1.3500   -0.2751 H       1  UNL1        0.0000
     28 H           0.9481   -2.4383    1.3810 H       1  UNL1        0.0000
     29 H          -0.7027   -2.3135    0.8124 H       1  UNL1        0.0000
     30 H          -1.9765    1.5725    1.6919 H       1  UNL1        0.0000
     31 H          -0.2891    1.4322    2.1048 H       1  UNL1        0.0000
     32 H          -2.3747   -1.0040    0.0475 H       1  UNL1        0.0000
     33 H          -1.7519   -0.4786   -1.4833 H       1  UNL1        0.0000
     34 H           0.5423   -0.8770    3.1711 H       1  UNL1        0.0000
     35 H          -0.6004   -2.2011    3.1748 H       1  UNL1        0.0000
     36 H          -2.3440   -0.8255    2.2787 H       1  UNL1        0.0000
     37 H          -1.6213    0.0509    3.6115 H       1  UNL1        0.0000
     38 H           1.4493    1.5195   -1.1508 H       1  UNL1        0.0000
     39 H           2.4142   -1.0475    2.1674 H       1  UNL1        0.0000
     40 H          -1.6652    2.1212   -1.7186 H       1  UNL1        0.0000
     41 H          -3.2926    2.7335   -1.6402 H       1  UNL1        0.0000
     42 H          -2.9330    1.3316   -2.6667 H       1  UNL1        0.0000
     43 H           0.4447   -4.2889    0.2898 H       1  UNL1        0.0000
     44 H           0.6952   -4.9289   -1.3248 H       1  UNL1        0.0000
     45 H          -0.6961   -3.8867   -1.0163 H       1  UNL1        0.0000
     46 H           3.5465   -3.3919   -0.5601 H       1  UNL1        0.0000
     47 H           2.8256   -2.7210    0.8449 H       1  UNL1        0.0000
     48 H           3.5751   -1.6697   -0.4298 H       1  UNL1        0.0000
     49 H           2.4804   -3.7100   -3.2006 H       1  UNL1        0.0000
     50 H           2.5466   -1.9478   -3.3961 H       1  UNL1        0.0000
     51 H           1.0389   -2.8208   -3.7292 H       1  UNL1        0.0000
     52 H          -4.3647    0.5933    2.2388 H       1  UNL1        0.0000
     53 H          -5.9198   -0.1429    1.8349 H       1  UNL1        0.0000
     54 H          -4.4422   -1.0840    1.6404 H       1  UNL1        0.0000
     55 H          -5.2433   -0.4484   -2.4413 H       1  UNL1        0.0000
     56 H          -6.3711   -1.0362   -1.2084 H       1  UNL1        0.0000
     57 H          -4.7326   -1.7024   -1.2980 H       1  UNL1        0.0000
     58 H          -5.4050    2.8814    0.2254 H       1  UNL1        0.0000
     59 H          -6.8148    1.8677   -0.1244 H       1  UNL1        0.0000
     60 H          -5.7804    2.4251   -1.4472 H       1  UNL1        0.0000
     61 H           4.5132    0.1043    2.4818 H       1  UNL1        0.0000
     62 H           5.1436    2.0091    1.0328 H       1  UNL1        0.0000
     63 H           3.1894    4.1851   -2.4976 H       1  UNL1        0.0000
     64 H           1.8045    3.6637   -1.5456 H       1  UNL1        0.0000
     65 H           2.6317    2.5291   -2.7038 H       1  UNL1        0.0000
@<TRIPOS>BOND
     1     1     3    1
     2     1    17    1
     3     1    18    1
     4     1    19    1
     5     2     5    1
     6     2    20    1
     7     2    21    1
     8     2    22    1
     9     3     6    1
    10     4    23    1
    11     4    26    1
    12     5    10    1
    13     5    16    1
    14     6     7    1
    15     6     8    1
    16     6    13    1
    17     7     9    1
    18     7    10    1
    19     7    27    1
    20     8    11    1
    21     8    28    1
    22     8    29    1
    23     9    12    1
    24     9    30    1
    25     9    31    1
    26    10    32    1
    27    10    33    1
    28    11    12    1
    29    11    34    1
    30    11    35    1
    31    12    36    1
    32    12    37    1
    33    13    14   ar
    34    13    15   ar
    35    14    23   ar
    36    14    38    1
    37    15    24   ar
    38    15    39    1
    39    16    40    1
    40    16    41    1
    41    16    42    1
    42    17    43    1
    43    17    44    1
    44    17    45    1
    45    18    46    1
    46    18    47    1
    47    18    48    1
    48    19    49    1
    49    19    50    1
    50    19    51    1
    51    20    52    1
    52    20    53    1
    53    20    54    1
    54    21    55    1
    55    21    56    1
    56    21    57    1
    57    22    58    1
    58    22    59    1
    59    22    60    1
    60    23    25   ar
    61    24    25   ar
    62    24    61    1
    63    25    62    1
    64    26    63    1
    65    26    64    1
    66    26    65    1
@<TRIPOS>MOLECULE
71316033
 42 43 0 0 0
SMALL
GASTEIGER

@<TRIPOS>ATOM
      1 S           3.4333    0.9679    0.8821 S.O2    1  UNL1        0.2513
      2 O          -2.6213   -1.4327   -0.8817 O.3     1  UNL1       -0.3836
      3 O           3.2519   -0.6204    0.4974 O.3     1  UNL1       -0.3250
      4 O           5.0419    1.1346    1.1038 O.3     1  UNL1       -0.2222
      5 O           3.0545    1.7770   -0.2616 O.2     1  UNL1       -0.1077
      6 O           2.7941    1.1857    2.1669 O.2     1  UNL1       -0.1077
      7 N          -2.0409    2.8073   -0.8967 N.3     1  UNL1       -0.3186
      8 C          -1.6403   -0.9115    0.0299 C.3     1  UNL1        0.0950
      9 C          -1.9387    0.6109    0.1999 C.3     1  UNL1        0.0045
     10 C          -1.8352   -1.6498    1.3783 C.3     1  UNL1       -0.0195
     11 C          -3.3220    0.8440    0.8404 C.3     1  UNL1       -0.0461
     12 C          -3.2116   -1.3957    1.9931 C.3     1  UNL1       -0.0501
     13 C          -3.4762    0.0948    2.1597 C.3     1  UNL1       -0.0526
     14 C          -1.8742    1.3834   -1.1262 C.3     1  UNL1        0.0014
     15 C          -0.2249   -1.1630   -0.5037 C.ar    1  UNL1       -0.0123
     16 C           0.8832   -0.7735    0.2486 C.ar    1  UNL1       -0.0111
     17 C          -0.0454   -1.7805   -1.7415 C.ar    1  UNL1       -0.0556
     18 C           2.1710   -1.0016   -0.2368 C.ar    1  UNL1        0.1591
     19 C           1.2422   -2.0084   -2.2271 C.ar    1  UNL1       -0.0579
     20 C          -1.9916    3.5509   -2.1502 C.3     1  UNL1       -0.0158
     21 C           2.3504   -1.6192   -1.4746 C.ar    1  UNL1       -0.0170
     22 H          -1.1890    1.0374    0.8821 H       1  UNL1        0.0344
     23 H          -1.7178   -2.7321    1.2355 H       1  UNL1        0.0296
     24 H          -1.0754   -1.3451    2.1081 H       1  UNL1        0.0296
     25 H          -4.1172    0.5297    0.1523 H       1  UNL1        0.0269
     26 H          -3.4846    1.9095    1.0407 H       1  UNL1        0.0269
     27 H          -3.2727   -1.8905    2.9692 H       1  UNL1        0.0266
     28 H          -3.9913   -1.8419    1.3641 H       1  UNL1        0.0266
     29 H          -4.4878    0.2466    2.5532 H       1  UNL1        0.0265
     30 H          -2.7808    0.5102    2.8995 H       1  UNL1        0.0265
     31 H          -2.6540    1.0204   -1.8070 H       1  UNL1        0.0428
     32 H          -0.9075    1.2113   -1.6128 H       1  UNL1        0.0428
     33 H          -2.6029   -2.4037   -0.8296 H       1  UNL1        0.2106
     34 H          -1.3069    3.1452   -0.2750 H       1  UNL1        0.1216
     35 H           0.7500   -0.2988    1.2160 H       1  UNL1        0.0659
     36 H          -0.8813   -2.0929   -2.3598 H       1  UNL1        0.0621
     37 H           1.3825   -2.4875   -3.1917 H       1  UNL1        0.0619
     38 H          -2.7930    3.2388   -2.8278 H       1  UNL1        0.0388
     39 H          -1.0270    3.4268   -2.6531 H       1  UNL1        0.0388
     40 H          -2.1302    4.6170   -1.9459 H       1  UNL1        0.0388
     41 H           3.3511   -1.7984   -1.8583 H       1  UNL1        0.0655
     42 H           5.3422    2.0427    1.3432 H       1  UNL1        0.2479
@<TRIPOS>BOND
     1     1     3    1
     2     1     4    1
     3     1     5    2
     4     1     6    2
     5     2     8    1
     6     2    33    1
     7     3    18    1
     8     4    42    1
     9     7    14    1
    10     7    20    1
    11     7    34    1
    12     8     9    1
    13     8    10    1
    14     8    15    1
    15     9    11    1
    16     9    14    1
    17     9    22    1
    18    10    12    1
    19    10    23    1
    20    10    24    1
    21    11    13    1
    22    11    25    1
    23    11    26    1
    24    12    13    1
    25    12    27    1
    26    12    28    1
    27    13    29    1
    28    13    30    1
    29    14    31    1
    30    14    32    1
    31    15    16   ar
    32    15    17   ar
    33    16    18   ar
    34    16    35    1
    35    17    19   ar
    36    17    36    1
    37    18    21   ar
    38    19    21   ar
    39    19    37    1
    40    20    38    1
    41    20    39    1
    42    20    40    1
    43    21    41    1
@<TRIPOS>MOLECULE
129627216
 61 63 0 0 0
SMALL
GASTEIGER

@<TRIPOS>ATOM
      1 O          -3.0516   -0.3471   -2.1268 O.3     1  UNL1       -0.3836
      2 O           1.4621   -2.2721   -0.6132 O.3     1  UNL1       -0.4608
      3 O           2.0738   -0.0408   -0.9188 O.3     1  UNL1       -0.3221
      4 O           3.7199   -2.6669    1.0566 O.3     1  UNL1       -0.3829
      5 O           4.1575   -0.0854    1.9754 O.3     1  UNL1       -0.3863
      6 O           4.9358    1.9372    0.2557 O.3     1  UNL1       -0.3860
      7 O           3.1248    3.2959   -1.1993 O.3     1  UNL1       -0.4788
      8 O           1.9529    1.8982   -2.5664 O.2     1  UNL1       -0.2480
      9 N          -1.8189    2.2817    1.8049 N.3     1  UNL1       -0.3080
     10 C          -2.6081    1.0054   -0.1399 C.3     1  UNL1        0.0048
     11 C          -3.0822   -0.3821   -0.6860 C.3     1  UNL1        0.0950
     12 C          -3.5980    2.1329   -0.5038 C.3     1  UNL1       -0.0461
     13 C          -4.5520   -0.6530   -0.2779 C.3     1  UNL1       -0.0195
     14 C          -5.0343    1.8249   -0.0927 C.3     1  UNL1       -0.0526
     15 C          -5.5073    0.4858   -0.6426 C.3     1  UNL1       -0.0501
     16 C          -2.3571    1.0038    1.3774 C.3     1  UNL1        0.0041
     17 C          -2.1024   -1.5019   -0.3200 C.ar    1  UNL1       -0.0124
     18 C          -0.7496   -1.3758   -0.6361 C.ar    1  UNL1       -0.0139
     19 C          -2.5632   -2.6478    0.3285 C.ar    1  UNL1       -0.0556
     20 C           3.6257   -1.5819    0.1395 C.3     1  UNL1        0.1455
     21 C           2.1621   -1.1657   -0.0440 C.3     1  UNL1        0.2312
     22 C           4.4891   -0.4145    0.6233 C.3     1  UNL1        0.1157
     23 C           0.1424   -2.3953   -0.3036 C.ar    1  UNL1        0.1243
     24 C           4.2730    0.7997   -0.2842 C.3     1  UNL1        0.1202
     25 C           2.7837    1.1009   -0.4453 C.3     1  UNL1        0.1869
     26 C          -2.0668    2.5016    3.2333 C.3     1  UNL1       -0.0130
     27 C          -0.3814    2.3626    1.5267 C.3     1  UNL1       -0.0130
     28 C          -1.6711   -3.6673    0.6609 C.ar    1  UNL1       -0.0580
     29 C          -0.3183   -3.5411    0.3451 C.ar    1  UNL1       -0.0198
     30 C           2.5594    2.1082   -1.5265 C.2     1  UNL1        0.3367
     31 H          -1.6744    1.2663   -0.6531 H       1  UNL1        0.0344
     32 H          -3.5772    2.2716   -1.5932 H       1  UNL1        0.0269
     33 H          -3.2943    3.0983   -0.0846 H       1  UNL1        0.0269
     34 H          -4.6279   -0.8233    0.8033 H       1  UNL1        0.0296
     35 H          -4.9242   -1.5551   -0.7813 H       1  UNL1        0.0296
     36 H          -5.6946    2.6195   -0.4596 H       1  UNL1        0.0265
     37 H          -5.1245    1.8288    0.9994 H       1  UNL1        0.0265
     38 H          -6.5092    0.2626   -0.2582 H       1  UNL1        0.0266
     39 H          -5.5965    0.5523   -1.7339 H       1  UNL1        0.0266
     40 H          -1.6885    0.1894    1.6806 H       1  UNL1        0.0430
     41 H          -3.3066    0.8036    1.8883 H       1  UNL1        0.0430
     42 H          -2.3193    0.2238   -2.4138 H       1  UNL1        0.2106
     43 H          -0.3934   -0.4988   -1.1666 H       1  UNL1        0.0658
     44 H          -3.6030   -2.7980    0.5958 H       1  UNL1        0.0621
     45 H           4.0129   -1.9369   -0.8243 H       1  UNL1        0.0683
     46 H           5.5469   -0.6981    0.6413 H       1  UNL1        0.0648
     47 H           1.7139   -0.9164    0.9281 H       1  UNL1        0.1084
     48 H           4.7123    0.5884   -1.2678 H       1  UNL1        0.0652
     49 H           2.3159    1.4771    0.4710 H       1  UNL1        0.0742
     50 H          -3.1427    2.5114    3.4406 H       1  UNL1        0.0391
     51 H          -1.6812    3.4788    3.5451 H       1  UNL1        0.0391
     52 H          -1.5997    1.7298    3.8559 H       1  UNL1        0.0391
     53 H          -0.1703    2.2996    0.4553 H       1  UNL1        0.0391
     54 H           0.1851    1.5762    2.0392 H       1  UNL1        0.0391
     55 H           0.0142    3.3314    1.8531 H       1  UNL1        0.0391
     56 H          -2.0291   -4.5599    1.1657 H       1  UNL1        0.0619
     57 H           0.3721   -4.3383    0.6069 H       1  UNL1        0.0654
     58 H           4.6603   -2.8996    1.1397 H       1  UNL1        0.2102
     59 H           3.2313    0.2025    2.0129 H       1  UNL1        0.2100
     60 H           5.8755    1.7082    0.3554 H       1  UNL1        0.2100
     61 H           2.9894    3.9711   -1.8979 H       1  UNL1        0.2951
@<TRIPOS>BOND
     1     1    11    1
     2     1    42    1
     3     2    21    1
     4     2    23    1
     5     3    21    1
     6     3    25    1
     7     4    20    1
     8     4    58    1
     9     5    22    1
    10     5    59    1
    11     6    24    1
    12     6    60    1
    13     7    30    1
    14     7    61    1
    15     8    30    2
    16     9    16    1
    17     9    26    1
    18     9    27    1
    19    10    11    1
    20    10    12    1
    21    10    16    1
    22    10    31    1
    23    11    13    1
    24    11    17    1
    25    12    14    1
    26    12    32    1
    27    12    33    1
    28    13    15    1
    29    13    34    1
    30    13    35    1
    31    14    15    1
    32    14    36    1
    33    14    37    1
    34    15    38    1
    35    15    39    1
    36    16    40    1
    37    16    41    1
    38    17    18   ar
    39    17    19   ar
    40    18    23   ar
    41    18    43    1
    42    19    28   ar
    43    19    44    1
    44    20    21    1
    45    20    22    1
    46    20    45    1
    47    21    47    1
    48    22    24    1
    49    22    46    1
    50    23    29   ar
    51    24    25    1
    52    24    48    1
    53    25    30    1
    54    25    49    1
    55    26    50    1
    56    26    51    1
    57    26    52    1
    58    27    53    1
    59    27    54    1
    60    27    55    1
    61    28    29   ar
    62    28    56    1
    63    29    57    1
@<TRIPOS>MOLECULE
12149037
 47 48 0 0 0
SMALL
GASTEIGER

@<TRIPOS>ATOM
      1 O           0.8188    1.0718   -1.6080 O.3     1  UNL1       -0.3716
      2 O          -3.7697   -0.8520   -0.9938 O.3     1  UNL1       -0.4951
      3 N           2.0604   -2.6907    0.0101 N.3     1  UNL1       -0.3080
      4 C           0.7433    0.9256   -0.1805 C.3     1  UNL1        0.0981
      5 C           1.6647   -0.2735    0.2050 C.3     1  UNL1        0.0050
      6 C           1.2843    2.2383    0.4402 C.3     1  UNL1       -0.0193
      7 C           3.1387    0.0161   -0.1440 C.3     1  UNL1       -0.0461
      8 C           2.7482    2.4967    0.0837 C.3     1  UNL1       -0.0501
      9 C           3.6295    1.3191    0.4782 C.3     1  UNL1       -0.0526
     10 C           1.2481   -1.5880   -0.4720 C.3     1  UNL1        0.0041
     11 C          -0.7080    0.6988    0.2596 C.ar    1  UNL1       -0.0121
     12 C          -1.5864    0.0183   -0.5784 C.ar    1  UNL1       -0.0140
     13 C          -1.1380    1.1754    1.4945 C.ar    1  UNL1       -0.0556
     14 C           0.0474    2.1760   -2.0587 C.3     1  UNL1        0.0376
     15 C           1.6671   -3.9483   -0.6329 C.3     1  UNL1       -0.0130
     16 C           1.9566   -2.8173    1.4670 C.3     1  UNL1       -0.0130
     17 C          -2.9065   -0.1877   -0.1779 C.ar    1  UNL1        0.1204
     18 C          -2.4582    0.9696    1.8951 C.ar    1  UNL1       -0.0580
     19 C          -3.3424    0.2880    1.0588 C.ar    1  UNL1       -0.0199
     20 C          -5.0979   -1.0363   -0.5458 C.3     1  UNL1        0.0788
     21 H           1.5790   -0.3583    1.2952 H       1  UNL1        0.0344
     22 H           1.2770    2.1851    1.5347 H       1  UNL1        0.0296
     23 H           0.6892    3.1199    0.1758 H       1  UNL1        0.0296
     24 H           3.2666    0.0680   -1.2330 H       1  UNL1        0.0269
     25 H           3.7946   -0.7877    0.2085 H       1  UNL1        0.0269
     26 H           3.0957    3.3992    0.6001 H       1  UNL1        0.0266
     27 H           2.8507    2.6909   -0.9901 H       1  UNL1        0.0266
     28 H           4.6614    1.5113    0.1629 H       1  UNL1        0.0265
     29 H           3.6440    1.2197    1.5705 H       1  UNL1        0.0265
     30 H           1.3567   -1.4942   -1.5598 H       1  UNL1        0.0430
     31 H           0.1978   -1.8158   -0.2696 H       1  UNL1        0.0430
     32 H          -1.2685   -0.3649   -1.5445 H       1  UNL1        0.0658
     33 H          -0.4962    1.6837    2.2024 H       1  UNL1        0.0621
     34 H           0.6742    3.0729   -2.0937 H       1  UNL1        0.0524
     35 H          -0.8662    2.3988   -1.5025 H       1  UNL1        0.0524
     36 H          -0.2442    1.9656   -3.0930 H       1  UNL1        0.0524
     37 H           1.7644   -3.8698   -1.7215 H       1  UNL1        0.0391
     38 H           0.6337   -4.2276   -0.3973 H       1  UNL1        0.0391
     39 H           2.3270   -4.7646   -0.3187 H       1  UNL1        0.0391
     40 H           2.5194   -2.0403    1.9927 H       1  UNL1        0.0391
     41 H           2.4139   -3.7577    1.7994 H       1  UNL1        0.0391
     42 H           0.9176   -2.8172    1.8162 H       1  UNL1        0.0391
     43 H          -2.7959    1.3338    2.8612 H       1  UNL1        0.0619
     44 H          -4.3539    0.1595    1.4290 H       1  UNL1        0.0654
     45 H          -5.6359   -1.5837   -1.3267 H       1  UNL1        0.0660
     46 H          -5.6166   -0.0808   -0.4122 H       1  UNL1        0.0660
     47 H          -5.1383   -1.6516    0.3596 H       1  UNL1        0.0660
@<TRIPOS>BOND
     1     1     4    1
     2     1    14    1
     3     2    17    1
     4     2    20    1
     5     3    10    1
     6     3    15    1
     7     3    16    1
     8     4     5    1
     9     4     6    1
    10     4    11    1
    11     5     7    1
    12     5    10    1
    13     5    21    1
    14     6     8    1
    15     6    22    1
    16     6    23    1
    17     7     9    1
    18     7    24    1
    19     7    25    1
    20     8     9    1
    21     8    26    1
    22     8    27    1
    23     9    28    1
    24     9    29    1
    25    10    30    1
    26    10    31    1
    27    11    12   ar
    28    11    13   ar
    29    12    17   ar
    30    12    32    1
    31    13    18   ar
    32    13    33    1
    33    14    34    1
    34    14    35    1
    35    14    36    1
    36    15    37    1
    37    15    38    1
    38    15    39    1
    39    16    40    1
    40    16    41    1
    41    16    42    1
    42    17    19   ar
    43    18    19   ar
    44    18    43    1
    45    19    44    1
    46    20    45    1
    47    20    46    1
    48    20    47    1
@<TRIPOS>MOLECULE
91693837
 65 66 0 0 0
SMALL
GASTEIGER

@<TRIPOS>ATOM
      1 SI         -1.9093   -1.4570   -1.9641 Si      1  UNL1        0.0000
      2 SI          5.0383    0.7740   -0.3132 Si      1  UNL1        0.0000
      3 O          -1.6567   -0.0918   -1.0248 O.3     1  UNL1        0.0000
      4 O           3.3650    0.7986   -0.2556 O.3     1  UNL1        0.0000
      5 N          -2.7827    2.3455   -0.7757 N.3     1  UNL1        0.0000
      6 C          -1.4082   -0.2365    0.3864 C.3     1  UNL1        0.0000
      7 C          -1.7095    1.1367    1.0785 C.3     1  UNL1        0.0000
      8 C          -2.4208   -1.2991    0.8895 C.3     1  UNL1        0.0000
      9 C          -1.7549    0.9909    2.6095 C.3     1  UNL1        0.0000
     10 C          -2.5294   -1.4001    2.4124 C.3     1  UNL1        0.0000
     11 C          -2.7712   -0.0484    3.0703 C.3     1  UNL1        0.0000
     12 C          -2.9928    1.8079    0.5566 C.3     1  UNL1        0.0000
     13 C           0.0766   -0.6184    0.4947 C.ar    1  UNL1        0.0000
     14 C           1.0592    0.2742    0.0661 C.ar    1  UNL1        0.0000
     15 C           0.4417   -1.8577    1.0208 C.ar    1  UNL1        0.0000
     16 C          -3.6680   -2.0971   -1.7770 C.3     1  UNL1        0.0000
     17 C          -1.5920   -1.1012   -3.7838 C.3     1  UNL1        0.0000
     18 C          -0.7317   -2.8255   -1.4248 C.3     1  UNL1        0.0000
     19 C           2.4069   -0.0723    0.1636 C.ar    1  UNL1        0.0000
     20 C          -4.0574    2.4961   -1.4845 C.3     1  UNL1        0.0000
     21 C          -2.0867    3.6345   -0.7142 C.3     1  UNL1        0.0000
     22 C           1.7893   -2.2044    1.1181 C.ar    1  UNL1        0.0000
     23 C           2.7720   -1.3116    0.6898 C.ar    1  UNL1        0.0000
     24 C           5.6671   -0.6268   -1.3979 C.3     1  UNL1        0.0000
     25 C           5.7805    0.5969    1.4050 C.3     1  UNL1        0.0000
     26 C           5.6748    2.3927   -1.0458 C.3     1  UNL1        0.0000
     27 H          -0.8833    1.8295    0.8943 H       1  UNL1        0.0000
     28 H          -2.2512   -2.3243    0.5748 H       1  UNL1        0.0000
     29 H          -3.4307   -1.0359    0.5521 H       1  UNL1        0.0000
     30 H          -1.9855    1.9568    3.0750 H       1  UNL1        0.0000
     31 H          -0.7614    0.7048    2.9777 H       1  UNL1        0.0000
     32 H          -1.6284   -1.8412    2.8485 H       1  UNL1        0.0000
     33 H          -3.3525   -2.0769    2.6725 H       1  UNL1        0.0000
     34 H          -3.7868    0.2951    2.8412 H       1  UNL1        0.0000
     35 H          -2.7182   -0.1564    4.1598 H       1  UNL1        0.0000
     36 H          -3.3218    2.6004    1.2426 H       1  UNL1        0.0000
     37 H          -3.8089    1.0769    0.5508 H       1  UNL1        0.0000
     38 H           0.7950    1.2343   -0.3689 H       1  UNL1        0.0000
     39 H          -0.2651   -2.5883    1.3909 H       1  UNL1        0.0000
     40 H          -3.7894   -2.7933   -0.9438 H       1  UNL1        0.0000
     41 H          -3.9554   -2.6395   -2.6839 H       1  UNL1        0.0000
     42 H          -4.3707   -1.2675   -1.6535 H       1  UNL1        0.0000
     43 H          -1.7472   -2.0007   -4.3867 H       1  UNL1        0.0000
     44 H          -0.5638   -0.7589   -3.9330 H       1  UNL1        0.0000
     45 H          -2.2699   -0.3223   -4.1450 H       1  UNL1        0.0000
     46 H           0.3120   -2.5076   -1.4622 H       1  UNL1        0.0000
     47 H          -0.9750   -3.3627   -0.5113 H       1  UNL1        0.0000
     48 H          -0.8042   -3.5985   -2.2021 H       1  UNL1        0.0000
     49 H          -4.5552    1.5261   -1.5933 H       1  UNL1        0.0000
     50 H          -4.7389    3.1800   -0.9658 H       1  UNL1        0.0000
     51 H          -3.8910    2.8752   -2.4989 H       1  UNL1        0.0000
     52 H          -1.9324    4.0272   -1.7261 H       1  UNL1        0.0000
     53 H          -2.6508    4.3831   -0.1456 H       1  UNL1        0.0000
     54 H          -1.0891    3.5473   -0.2748 H       1  UNL1        0.0000
     55 H           2.0740   -3.1676    1.5315 H       1  UNL1        0.0000
     56 H           3.8039   -1.6281    0.7875 H       1  UNL1        0.0000
     57 H           5.4088   -1.6031   -0.9795 H       1  UNL1        0.0000
     58 H           5.2337   -0.5578   -2.4000 H       1  UNL1        0.0000
     59 H           6.7561   -0.5766   -1.4923 H       1  UNL1        0.0000
     60 H           5.5238   -0.3661    1.8541 H       1  UNL1        0.0000
     61 H           6.8714    0.6683    1.3583 H       1  UNL1        0.0000
     62 H           5.4140    1.3905    2.0628 H       1  UNL1        0.0000
     63 H           5.2876    2.5309   -2.0595 H       1  UNL1        0.0000
     64 H           5.3536    3.2406   -0.4339 H       1  UNL1        0.0000
     65 H           6.7678    2.3907   -1.0893 H       1  UNL1        0.0000
@<TRIPOS>BOND
     1     1     3    1
     2     1    16    1
     3     1    17    1
     4     1    18    1
     5     2     4    1
     6     2    24    1
     7     2    25    1
     8     2    26    1
     9     3     6    1
    10     4    19    1
    11     5    12    1
    12     5    20    1
    13     5    21    1
    14     6     7    1
    15     6     8    1
    16     6    13    1
    17     7     9    1
    18     7    12    1
    19     7    27    1
    20     8    10    1
    21     8    28    1
    22     8    29    1
    23     9    11    1
    24     9    30    1
    25     9    31    1
    26    10    11    1
    27    10    32    1
    28    10    33    1
    29    11    34    1
    30    11    35    1
    31    12    36    1
    32    12    37    1
    33    13    14   ar
    34    13    15   ar
    35    14    19   ar
    36    14    38    1
    37    15    22   ar
    38    15    39    1
    39    16    40    1
    40    16    41    1
    41    16    42    1
    42    17    43    1
    43    17    44    1
    44    17    45    1
    45    18    46    1
    46    18    47    1
    47    18    48    1
    48    19    23   ar
    49    20    49    1
    50    20    50    1
    51    20    51    1
    52    21    52    1
    53    21    53    1
    54    21    54    1
    55    22    23   ar
    56    22    55    1
    57    23    56    1
    58    24    57    1
    59    24    58    1
    60    24    59    1
    61    25    60    1
    62    25    61    1
    63    25    62    1
    64    26    63    1
    65    26    64    1
    66    26    65    1
@<TRIPOS>MOLECULE
130829
 41 42 0 0 0
SMALL
GASTEIGER

@<TRIPOS>ATOM
      1 O          -0.6023    1.4977   -1.6667 O.3     1  UNL1       -0.3836
      2 O           3.1719   -1.6993    1.7365 O.3     1  UNL1       -0.5068
      3 N          -2.2427   -2.1942   -0.3069 N.3     1  UNL1       -0.3080
      4 C          -1.3386    0.0289    0.1309 C.3     1  UNL1        0.0048
      5 C          -0.3050    1.1117   -0.3160 C.3     1  UNL1        0.0950
      6 C          -2.7632    0.6034    0.2606 C.3     1  UNL1       -0.0461
      7 C          -0.4171    2.3832    0.5609 C.3     1  UNL1       -0.0195
      8 C          -2.8045    1.8344    1.1589 C.3     1  UNL1       -0.0526
      9 C          -1.8454    2.9151    0.6790 C.3     1  UNL1       -0.0501
     10 C          -1.3756   -1.1796   -0.8160 C.3     1  UNL1        0.0041
     11 C           1.1385    0.5908   -0.2556 C.ar    1  UNL1       -0.0124
     12 C           1.5010   -0.3273    0.7253 C.ar    1  UNL1       -0.0143
     13 C           2.0743    1.0398   -1.1825 C.ar    1  UNL1       -0.0556
     14 C          -1.8017   -2.6748    1.0157 C.3     1  UNL1       -0.0130
     15 C          -2.3405   -3.3408   -1.2289 C.3     1  UNL1       -0.0130
     16 C           2.8119   -0.8009    0.7798 C.ar    1  UNL1        0.1172
     17 C           3.3850    0.5663   -1.1280 C.ar    1  UNL1       -0.0580
     18 C           3.7539   -0.3542   -0.1470 C.ar    1  UNL1       -0.0202
     19 H          -1.0721   -0.2675    1.1473 H       1  UNL1        0.0344
     20 H          -3.4547   -0.1381    0.6767 H       1  UNL1        0.0269
     21 H          -3.1498    0.8723   -0.7309 H       1  UNL1        0.0269
     22 H           0.2111    3.1826    0.1466 H       1  UNL1        0.0296
     23 H          -0.0395    2.1746    1.5709 H       1  UNL1        0.0296
     24 H          -2.5493    1.5470    2.1864 H       1  UNL1        0.0265
     25 H          -3.8242    2.2355    1.1849 H       1  UNL1        0.0265
     26 H          -2.1785    3.2960   -0.2940 H       1  UNL1        0.0266
     27 H          -1.8651    3.7615    1.3749 H       1  UNL1        0.0266
     28 H          -0.3679   -1.5789   -0.9809 H       1  UNL1        0.0430
     29 H          -1.7411   -0.8521   -1.7977 H       1  UNL1        0.0430
     30 H          -0.3368    0.7786   -2.2645 H       1  UNL1        0.2106
     31 H           0.8178   -0.6803    1.4881 H       1  UNL1        0.0658
     32 H           1.8205    1.7680   -1.9473 H       1  UNL1        0.0621
     33 H          -1.9993   -1.9479    1.8085 H       1  UNL1        0.0391
     34 H          -0.7403   -2.9480    1.0250 H       1  UNL1        0.0391
     35 H          -2.3756   -3.5632    1.3070 H       1  UNL1        0.0391
     36 H          -2.6993   -3.0115   -2.2103 H       1  UNL1        0.0391
     37 H          -3.0675   -4.0720   -0.8584 H       1  UNL1        0.0391
     38 H          -1.3752   -3.8425   -1.3622 H       1  UNL1        0.0391
     39 H           4.1197    0.9168   -1.8471 H       1  UNL1        0.0619
     40 H           4.7785   -0.7148   -0.1150 H       1  UNL1        0.0654
     41 H           4.1132   -1.9176    1.6256 H       1  UNL1        0.2921
@<TRIPOS>BOND
     1     1     5    1
     2     1    30    1
     3     2    16    1
     4     2    41    1
     5     3    10    1
     6     3    14    1
     7     3    15    1
     8     4     5    1
     9     4     6    1
    10     4    10    1
    11     4    19    1
    12     5     7    1
    13     5    11    1
    14     6     8    1
    15     6    20    1
    16     6    21    1
    17     7     9    1
    18     7    22    1
    19     7    23    1
    20     8     9    1
    21     8    24    1
    22     8    25    1
    23     9    26    1
    24     9    27    1
    25    10    28    1
    26    10    29    1
    27    11    12   ar
    28    11    13   ar
    29    12    16   ar
    30    12    31    1
    31    13    17   ar
    32    13    32    1
    33    14    33    1
    34    14    34    1
    35    14    35    1
    36    15    36    1
    37    15    37    1
    38    15    38    1
    39    16    18   ar
    40    17    18   ar
    41    17    39    1
    42    18    40    1
@<TRIPOS>MOLECULE
9838803
 41 42 0 0 0
SMALL
GASTEIGER

@<TRIPOS>ATOM
      1 O          -0.6710    1.3341    1.7667 O.3     1  UNL1       -0.3836
      2 O           3.5659   -0.6860   -2.1019 O.3     1  UNL1       -0.5068
      3 N          -2.3420   -2.1979    0.0205 N.3     1  UNL1       -0.3080
      4 C          -1.3510    0.0438   -0.1530 C.3     1  UNL1        0.0048
      5 C          -0.2923    1.0416    0.4117 C.3     1  UNL1        0.0950
      6 C          -2.7541    0.6820   -0.2018 C.3     1  UNL1       -0.0461
      7 C          -0.3424    2.3770   -0.3726 C.3     1  UNL1       -0.0195
      8 C          -2.7590    1.9968   -0.9745 C.3     1  UNL1       -0.0526
      9 C          -1.7452    2.9834   -0.4105 C.3     1  UNL1       -0.0501
     10 C          -1.4319   -1.2607    0.6541 C.3     1  UNL1        0.0041
     11 C           1.1262    0.4609    0.3645 C.ar    1  UNL1       -0.0124
     12 C           1.7046    0.1484   -0.8622 C.ar    1  UNL1       -0.0143
     13 C           1.8267    0.2504    1.5487 C.ar    1  UNL1       -0.0556
     14 C          -2.4231   -3.4452    0.7867 C.3     1  UNL1       -0.0130
     15 C          -1.9249   -2.4803   -1.3564 C.3     1  UNL1       -0.0130
     16 C           2.9952   -0.3794   -0.9050 C.ar    1  UNL1        0.1172
     17 C           3.1170   -0.2772    1.5058 C.ar    1  UNL1       -0.0580
     18 C           3.7014   -0.5919    0.2791 C.ar    1  UNL1       -0.0202
     19 H          -1.0456   -0.1602   -1.1850 H       1  UNL1        0.0344
     20 H          -3.1235    0.8627    0.8159 H       1  UNL1        0.0269
     21 H          -3.4775    0.0128   -0.6809 H       1  UNL1        0.0269
     22 H          -0.0029    2.2407   -1.4065 H       1  UNL1        0.0296
     23 H           0.3351    3.1090    0.0864 H       1  UNL1        0.0296
     24 H          -3.7608    2.4399   -0.9403 H       1  UNL1        0.0265
     25 H          -2.5328    1.8012   -2.0300 H       1  UNL1        0.0265
     26 H          -1.7347    3.8904   -1.0257 H       1  UNL1        0.0266
     27 H          -2.0486    3.2898    0.5978 H       1  UNL1        0.0266
     28 H          -1.7810   -1.0402    1.6710 H       1  UNL1        0.0430
     29 H          -0.4366   -1.7112    0.7524 H       1  UNL1        0.0430
     30 H          -0.1748    2.1168    2.0617 H       1  UNL1        0.2106
     31 H           1.1628    0.3045   -1.7908 H       1  UNL1        0.0658
     32 H           1.4053    0.4767    2.5231 H       1  UNL1        0.0621
     33 H          -2.7578   -3.2456    1.8109 H       1  UNL1        0.0391
     34 H          -1.4592   -3.9650    0.8330 H       1  UNL1        0.0391
     35 H          -3.1616   -4.1226    0.3437 H       1  UNL1        0.0391
     36 H          -2.1503   -1.6538   -2.0368 H       1  UNL1        0.0391
     37 H          -2.4940   -3.3278   -1.7591 H       1  UNL1        0.0391
     38 H          -0.8613   -2.7360   -1.4291 H       1  UNL1        0.0391
     39 H           3.6668   -0.4445    2.4275 H       1  UNL1        0.0619
     40 H           4.7070   -1.0028    0.2522 H       1  UNL1        0.0654
     41 H           2.9381   -0.4757   -2.8144 H       1  UNL1        0.2921
@<TRIPOS>BOND
     1     1     5    1
     2     1    30    1
     3     2    16    1
     4     2    41    1
     5     3    10    1
     6     3    14    1
     7     3    15    1
     8     4     5    1
     9     4     6    1
    10     4    10    1
    11     4    19    1
    12     5     7    1
    13     5    11    1
    14     6     8    1
    15     6    20    1
    16     6    21    1
    17     7     9    1
    18     7    22    1
    19     7    23    1
    20     8     9    1
    21     8    24    1
    22     8    25    1
    23     9    26    1
    24     9    27    1
    25    10    28    1
    26    10    29    1
    27    11    12   ar
    28    11    13   ar
    29    12    16   ar
    30    12    31    1
    31    13    17   ar
    32    13    32    1
    33    14    33    1
    34    14    34    1
    35    14    35    1
    36    15    36    1
    37    15    37    1
    38    15    38    1
    39    16    18   ar
    40    17    18   ar
    41    17    39    1
    42    18    40    1
@<TRIPOS>MOLECULE
198555
 41 42 0 0 0
SMALL
GASTEIGER

@<TRIPOS>ATOM
      1 O          -0.6001    1.6315   -1.5988 O.3     1  UNL1       -0.3836
      2 O           3.8175   -0.9396   -0.7741 O.3     1  UNL1       -0.4951
      3 N          -1.9693   -2.6626    0.3158 N.3     1  UNL1       -0.3186
      4 C          -1.4117   -0.4503   -0.5944 C.3     1  UNL1        0.0045
      5 C          -0.7124    0.9262   -0.3449 C.3     1  UNL1        0.0950
      6 C          -1.6104    1.8287    0.5369 C.3     1  UNL1       -0.0195
      7 C          -2.8371   -0.2552   -1.1525 C.3     1  UNL1       -0.0461
      8 C          -3.0208    1.9986   -0.0341 C.3     1  UNL1       -0.0501
      9 C          -3.6983    0.6577   -0.2850 C.3     1  UNL1       -0.0526
     10 C          -1.4439   -1.3514    0.6497 C.3     1  UNL1        0.0014
     11 C           0.7220    0.7646    0.1636 C.ar    1  UNL1       -0.0124
     12 C           1.6250   -0.0239   -0.5460 C.ar    1  UNL1       -0.0141
     13 C           1.1197    1.4073    1.3338 C.ar    1  UNL1       -0.0556
     14 C           2.9326   -0.1705   -0.0828 C.ar    1  UNL1        0.1204
     15 C           2.4271    1.2606    1.7969 C.ar    1  UNL1       -0.0580
     16 C          -2.0148   -3.5256    1.4906 C.3     1  UNL1       -0.0158
     17 C           3.3336    0.4719    1.0886 C.ar    1  UNL1       -0.0199
     18 C           3.3413   -1.5679   -1.9633 C.3     1  UNL1        0.0788
     19 H          -0.8642   -0.9856   -1.3830 H       1  UNL1        0.0344
     20 H          -1.1797    2.8359    0.6144 H       1  UNL1        0.0296
     21 H          -1.6930    1.4259    1.5539 H       1  UNL1        0.0296
     22 H          -3.3498   -1.2129   -1.2951 H       1  UNL1        0.0269
     23 H          -2.7645    0.1876   -2.1548 H       1  UNL1        0.0269
     24 H          -2.9764    2.5668   -0.9712 H       1  UNL1        0.0266
     25 H          -3.6272    2.5907    0.6612 H       1  UNL1        0.0266
     26 H          -3.9209    0.1711    0.6714 H       1  UNL1        0.0265
     27 H          -4.6625    0.8254   -0.7789 H       1  UNL1        0.0265
     28 H          -2.0478   -0.8950    1.4413 H       1  UNL1        0.0428
     29 H          -0.4317   -1.4724    1.0511 H       1  UNL1        0.0428
     30 H          -0.3650    0.9927   -2.2927 H       1  UNL1        0.2106
     31 H          -1.3866   -3.0969   -0.3994 H       1  UNL1        0.1216
     32 H           1.2777   -0.4912   -1.4595 H       1  UNL1        0.0658
     33 H           0.4567    2.0300    1.9234 H       1  UNL1        0.0621
     34 H           2.7401    1.7600    2.7093 H       1  UNL1        0.0619
     35 H          -2.6660   -3.1069    2.2648 H       1  UNL1        0.0388
     36 H          -1.0162   -3.6871    1.9095 H       1  UNL1        0.0388
     37 H          -2.4238   -4.5010    1.2091 H       1  UNL1        0.0388
     38 H           4.3508    0.3614    1.4544 H       1  UNL1        0.0654
     39 H           4.1748   -2.1426   -2.3804 H       1  UNL1        0.0660
     40 H           3.0524   -0.8307   -2.7202 H       1  UNL1        0.0660
     41 H           2.5383   -2.2813   -1.7487 H       1  UNL1        0.0660
@<TRIPOS>BOND
     1     1     5    1
     2     1    30    1
     3     2    14    1
     4     2    18    1
     5     3    10    1
     6     3    16    1
     7     3    31    1
     8     4     5    1
     9     4     7    1
    10     4    10    1
    11     4    19    1
    12     5     6    1
    13     5    11    1
    14     6     8    1
    15     6    20    1
    16     6    21    1
    17     7     9    1
    18     7    22    1
    19     7    23    1
    20     8     9    1
    21     8    24    1
    22     8    25    1
    23     9    26    1
    24     9    27    1
    25    10    28    1
    26    10    29    1
    27    11    12   ar
    28    11    13   ar
    29    12    14   ar
    30    12    32    1
    31    13    15   ar
    32    13    33    1
    33    14    17   ar
    34    15    17   ar
    35    15    34    1
    36    16    35    1
    37    16    36    1
    38    16    37    1
    39    17    38    1
    40    18    39    1
    41    18    40    1
    42    18    41    1
@<TRIPOS>MOLECULE
10105488
 38 39 0 0 0
SMALL
GASTEIGER

@<TRIPOS>ATOM
      1 O          -1.6642    0.5050    1.7349 O.3     1  UNL1       -0.3836
      2 O           3.3844    0.0706   -1.6299 O.3     1  UNL1       -0.4951
      3 N          -2.0964   -3.1363   -0.4719 N.3     1  UNL1       -0.3296
      4 C          -1.0645    0.4652    0.4296 C.3     1  UNL1        0.0950
      5 C          -1.7386   -0.7086   -0.3469 C.3     1  UNL1        0.0043
      6 C          -1.3835    1.8163   -0.2586 C.3     1  UNL1       -0.0195
      7 C          -3.2466   -0.4560   -0.5481 C.3     1  UNL1       -0.0461
      8 C          -2.8838    2.0373   -0.4513 C.3     1  UNL1       -0.0501
      9 C          -3.5182    0.8859   -1.2200 C.3     1  UNL1       -0.0526
     10 C          -1.5558   -2.0666    0.3476 C.3     1  UNL1       -0.0011
     11 C           0.4538    0.2818    0.5421 C.ar    1  UNL1       -0.0124
     12 C           1.2350    0.2601   -0.6095 C.ar    1  UNL1       -0.0141
     13 C           1.0413    0.1377    1.7956 C.ar    1  UNL1       -0.0556
     14 C           2.6159    0.0930   -0.5068 C.ar    1  UNL1        0.1204
     15 C           2.4223   -0.0294    1.8983 C.ar    1  UNL1       -0.0580
     16 C           3.2096   -0.0517    0.7471 C.ar    1  UNL1       -0.0199
     17 C           4.7892   -0.1044   -1.4522 C.3     1  UNL1        0.0788
     18 H          -1.2843   -0.7707   -1.3463 H       1  UNL1        0.0344
     19 H          -0.9012    1.8815   -1.2415 H       1  UNL1        0.0296
     20 H          -0.9885    2.6470    0.3409 H       1  UNL1        0.0296
     21 H          -3.7691   -0.4884    0.4166 H       1  UNL1        0.0269
     22 H          -3.6934   -1.2383   -1.1726 H       1  UNL1        0.0269
     23 H          -3.0483    2.9753   -0.9939 H       1  UNL1        0.0266
     24 H          -3.3748    2.1466    0.5232 H       1  UNL1        0.0266
     25 H          -4.5995    1.0469   -1.2966 H       1  UNL1        0.0265
     26 H          -3.1252    0.8681   -2.2440 H       1  UNL1        0.0265
     27 H          -2.0562   -2.0764    1.3221 H       1  UNL1        0.0426
     28 H          -0.4956   -2.2741    0.5234 H       1  UNL1        0.0426
     29 H          -1.4378    1.3546    2.1506 H       1  UNL1        0.2106
     30 H           0.7898    0.3652   -1.5949 H       1  UNL1        0.0658
     31 H           0.4634    0.1436    2.7142 H       1  UNL1        0.0621
     32 H          -1.9207   -4.0332   -0.0209 H       1  UNL1        0.1182
     33 H          -1.6099   -3.1666   -1.3670 H       1  UNL1        0.1182
     34 H           2.8839   -0.1437    2.8750 H       1  UNL1        0.0619
     35 H           4.2751   -0.1854    0.8993 H       1  UNL1        0.0654
     36 H           5.2442   -0.0979   -2.4482 H       1  UNL1        0.0660
     37 H           5.0199   -1.0758   -1.0020 H       1  UNL1        0.0660
     38 H           5.2310    0.7276   -0.8935 H       1  UNL1        0.0660
@<TRIPOS>BOND
     1     1     4    1
     2     1    29    1
     3     2    14    1
     4     2    17    1
     5     3    10    1
     6     3    32    1
     7     3    33    1
     8     4     5    1
     9     4     6    1
    10     4    11    1
    11     5     7    1
    12     5    10    1
    13     5    18    1
    14     6     8    1
    15     6    19    1
    16     6    20    1
    17     7     9    1
    18     7    21    1
    19     7    22    1
    20     8     9    1
    21     8    23    1
    22     8    24    1
    23     9    25    1
    24     9    26    1
    25    10    27    1
    26    10    28    1
    27    11    12   ar
    28    11    13   ar
    29    12    14   ar
    30    12    30    1
    31    13    15   ar
    32    13    31    1
    33    14    16   ar
    34    15    16   ar
    35    15    34    1
    36    16    35    1
    37    17    36    1
    38    17    37    1
    39    17    38    1
@<TRIPOS>MOLECULE
9816106
 38 39 0 0 0
SMALL
GASTEIGER

@<TRIPOS>ATOM
      1 O          -0.9610    0.8331    1.8037 O.3     1  UNL1       -0.3836
      2 O           3.5932   -0.1426   -2.1086 O.3     1  UNL1       -0.5068
      3 N          -2.1892   -2.5406   -0.5254 N.3     1  UNL1       -0.3186
      4 C          -1.4359   -0.2112   -0.3167 C.3     1  UNL1        0.0045
      5 C          -0.5082    0.7895    0.4406 C.3     1  UNL1        0.0950
      6 C          -2.8962    0.2840   -0.3393 C.3     1  UNL1       -0.0461
      7 C          -0.6731    2.2170   -0.1391 C.3     1  UNL1       -0.0195
      8 C          -3.0143    1.6940   -0.9084 C.3     1  UNL1       -0.0526
      9 C          -2.1301    2.6793   -0.1557 C.3     1  UNL1       -0.0501
     10 C          -1.4052   -1.6248    0.2837 C.3     1  UNL1        0.0014
     11 C           0.9645    0.3668    0.3777 C.ar    1  UNL1       -0.0124
     12 C           1.6136    0.3038   -0.8519 C.ar    1  UNL1       -0.0143
     13 C           1.6433    0.0495    1.5507 C.ar    1  UNL1       -0.0556
     14 C           2.9535   -0.0801   -0.9089 C.ar    1  UNL1        0.1172
     15 C           2.9830   -0.3343    1.4935 C.ar    1  UNL1       -0.0580
     16 C          -2.1761   -3.8847    0.0402 C.3     1  UNL1       -0.0158
     17 C           3.6382   -0.3989    0.2639 C.ar    1  UNL1       -0.0202
     18 H          -1.0990   -0.2749   -1.3614 H       1  UNL1        0.0344
     19 H          -3.3188    0.2675    0.6735 H       1  UNL1        0.0269
     20 H          -3.5226   -0.3760   -0.9505 H       1  UNL1        0.0269
     21 H          -0.2869    2.2735   -1.1641 H       1  UNL1        0.0296
     22 H          -0.0924    2.9344    0.4555 H       1  UNL1        0.0296
     23 H          -4.0580    2.0247   -0.8586 H       1  UNL1        0.0265
     24 H          -2.7331    1.6849   -1.9687 H       1  UNL1        0.0265
     25 H          -2.1951    3.6658   -0.6287 H       1  UNL1        0.0266
     26 H          -2.4978    2.7970    0.8707 H       1  UNL1        0.0266
     27 H          -1.7962   -1.6027    1.3085 H       1  UNL1        0.0428
     28 H          -0.3725   -1.9878    0.3342 H       1  UNL1        0.0428
     29 H          -0.5607    1.6074    2.2352 H       1  UNL1        0.2106
     30 H          -1.8158   -2.5700   -1.4737 H       1  UNL1        0.1216
     31 H           1.0888    0.5441   -1.7723 H       1  UNL1        0.0658
     32 H           1.1679    0.0818    2.5259 H       1  UNL1        0.0621
     33 H           3.5161   -0.5842    2.4061 H       1  UNL1        0.0619
     34 H          -1.1613   -4.2939    0.0799 H       1  UNL1        0.0388
     35 H          -2.7824   -4.5478   -0.5847 H       1  UNL1        0.0388
     36 H          -2.6076   -3.8954    1.0464 H       1  UNL1        0.0388
     37 H           4.6819   -0.6987    0.2259 H       1  UNL1        0.0654
     38 H           2.9710    0.1104   -2.8120 H       1  UNL1        0.2921
@<TRIPOS>BOND
     1     1     5    1
     2     1    29    1
     3     2    14    1
     4     2    38    1
     5     3    10    1
     6     3    16    1
     7     3    30    1
     8     4     5    1
     9     4     6    1
    10     4    10    1
    11     4    18    1
    12     5     7    1
    13     5    11    1
    14     6     8    1
    15     6    19    1
    16     6    20    1
    17     7     9    1
    18     7    21    1
    19     7    22    1
    20     8     9    1
    21     8    23    1
    22     8    24    1
    23     9    25    1
    24     9    26    1
    25    10    27    1
    26    10    28    1
    27    11    12   ar
    28    11    13   ar
    29    12    14   ar
    30    12    31    1
    31    13    15   ar
    32    13    32    1
    33    14    17   ar
    34    15    17   ar
    35    15    33    1
    36    16    34    1
    37    16    35    1
    38    16    36    1
    39    17    37    1
@<TRIPOS>MOLECULE
72941943
 41 42 0 0 0
SMALL
GASTEIGER

@<TRIPOS>ATOM
      1 O          -3.7516    0.8328   -1.3229 O.3     1  UNL1       -0.4951
      2 N           2.7845    2.0072    0.1489 N.3     1  UNL1       -0.3078
      3 C           1.5008    0.0353   -0.5576 C.3     1  UNL1       -0.0028
      4 C           2.7440   -0.5393   -1.2673 C.3     1  UNL1       -0.0448
      5 C           3.3507   -1.7111   -0.5023 C.3     1  UNL1       -0.0490
      6 C           0.5658   -1.0608   -0.0722 C.2     1  UNL1       -0.0397
      7 C           1.9100    0.9432    0.6099 C.3     1  UNL1        0.0051
      8 C           2.3322   -2.8338   -0.3166 C.3     1  UNL1       -0.0342
      9 C           0.9519   -2.3480    0.0145 C.2     1  UNL1       -0.0800
     10 C          -0.8294   -0.6963    0.2614 C.ar    1  UNL1       -0.0184
     11 C          -1.6427   -0.0961   -0.6999 C.ar    1  UNL1       -0.0125
     12 C           2.0160    3.0593   -0.5231 C.3     1  UNL1       -0.0130
     13 C           3.5464    2.5759    1.2649 C.3     1  UNL1       -0.0130
     14 C          -1.3310   -0.9532    1.5375 C.ar    1  UNL1       -0.0541
     15 C          -2.9576    0.2472   -0.3852 C.ar    1  UNL1        0.1207
     16 C          -2.6458   -0.6097    1.8522 C.ar    1  UNL1       -0.0577
     17 C          -3.4592   -0.0097    0.8908 C.ar    1  UNL1       -0.0199
     18 C          -5.0853    1.1571   -0.9331 C.3     1  UNL1        0.0788
     19 H           0.9679    0.6265   -1.3111 H       1  UNL1        0.0361
     20 H           2.4420   -0.8977   -2.2616 H       1  UNL1        0.0272
     21 H           3.5100    0.2209   -1.4517 H       1  UNL1        0.0272
     22 H           3.7141   -1.3738    0.4756 H       1  UNL1        0.0268
     23 H           4.2238   -2.0972   -1.0412 H       1  UNL1        0.0268
     24 H           2.4263    0.3292    1.3603 H       1  UNL1        0.0432
     25 H           1.0290    1.3536    1.1219 H       1  UNL1        0.0432
     26 H           2.6814   -3.5059    0.4755 H       1  UNL1        0.0308
     27 H           2.2720   -3.4291   -1.2357 H       1  UNL1        0.0308
     28 H           0.2453   -3.1140    0.3264 H       1  UNL1        0.0575
     29 H          -1.2710    0.1005   -1.7028 H       1  UNL1        0.0660
     30 H           1.5228    2.6909   -1.4273 H       1  UNL1        0.0391
     31 H           2.6842    3.8626   -0.8550 H       1  UNL1        0.0391
     32 H           1.2567    3.5015    0.1323 H       1  UNL1        0.0391
     33 H           4.1743    1.8096    1.7329 H       1  UNL1        0.0391
     34 H           2.8932    3.0063    2.0326 H       1  UNL1        0.0391
     35 H           4.2251    3.3589    0.9085 H       1  UNL1        0.0391
     36 H          -0.7111   -1.4139    2.3029 H       1  UNL1        0.0624
     37 H          -3.0349   -0.8086    2.8467 H       1  UNL1        0.0619
     38 H          -4.4697    0.2310    1.2027 H       1  UNL1        0.0654
     39 H          -5.6599    0.2598   -0.6795 H       1  UNL1        0.0660
     40 H          -5.5732    1.6144   -1.8002 H       1  UNL1        0.0660
     41 H          -5.1000    1.9008   -0.1291 H       1  UNL1        0.0660
@<TRIPOS>BOND
     1     1    15    1
     2     1    18    1
     3     2     7    1
     4     2    12    1
     5     2    13    1
     6     3     4    1
     7     3     6    1
     8     3     7    1
     9     3    19    1
    10     4     5    1
    11     4    20    1
    12     4    21    1
    13     5     8    1
    14     5    22    1
    15     5    23    1
    16     6     9    2
    17     6    10    1
    18     7    24    1
    19     7    25    1
    20     8     9    1
    21     8    26    1
    22     8    27    1
    23     9    28    1
    24    10    11   ar
    25    10    14   ar
    26    11    15   ar
    27    11    29    1
    28    12    30    1
    29    12    31    1
    30    12    32    1
    31    13    33    1
    32    13    34    1
    33    13    35    1
    34    14    16   ar
    35    14    36    1
    36    15    17   ar
    37    16    17   ar
    38    16    37    1
    39    17    38    1
    40    18    39    1
    41    18    40    1
    42    18    41    1
@<TRIPOS>MOLECULE
3056578
 38 39 0 0 0
SMALL
GASTEIGER

@<TRIPOS>ATOM
      1 O           1.0441    0.9070   -1.5476 O.3     1  UNL1       -0.3836
      2 O          -3.8999    0.7651   -0.8749 O.3     1  UNL1       -0.4951
      3 N           2.6088   -2.9278   -0.5881 N.3     1  UNL1       -0.3296
      4 C           0.9612    0.5087   -0.1694 C.3     1  UNL1        0.0950
      5 C           1.9846   -0.6521    0.0326 C.3     1  UNL1        0.0043
      6 C           1.3680    1.7365    0.6838 C.3     1  UNL1       -0.0195
      7 C           3.4302   -0.1758   -0.2158 C.3     1  UNL1       -0.0461
      8 C           2.8066    2.1825    0.4224 C.3     1  UNL1       -0.0501
      9 C           3.7880    1.0377    0.6357 C.3     1  UNL1       -0.0526
     10 C           1.7026   -1.8607   -0.8726 C.3     1  UNL1       -0.0011
     11 C          -0.4690    0.0802    0.1802 C.ar    1  UNL1       -0.0124
     12 C          -1.5442    0.6247   -0.5161 C.ar    1  UNL1       -0.0141
     13 C          -0.6834   -0.8499    1.1932 C.ar    1  UNL1       -0.0556
     14 C          -2.8452    0.2355   -0.1969 C.ar    1  UNL1        0.1204
     15 C          -1.9844   -1.2388    1.5127 C.ar    1  UNL1       -0.0580
     16 C          -3.0652   -0.6962    0.8176 C.ar    1  UNL1       -0.0199
     17 C          -5.2027    0.3233   -0.4967 C.3     1  UNL1        0.0788
     18 H           1.9706   -0.9797    1.0796 H       1  UNL1        0.0344
     19 H           1.2545    1.5044    1.7511 H       1  UNL1        0.0296
     20 H           0.7027    2.5842    0.4747 H       1  UNL1        0.0296
     21 H           3.5709    0.0738   -1.2754 H       1  UNL1        0.0269
     22 H           4.1501   -0.9692    0.0168 H       1  UNL1        0.0269
     23 H           3.0590    3.0110    1.0941 H       1  UNL1        0.0266
     24 H           2.9019    2.5660   -0.6005 H       1  UNL1        0.0266
     25 H           4.8022    1.3730    0.3908 H       1  UNL1        0.0265
     26 H           3.7940    0.7525    1.6950 H       1  UNL1        0.0265
     27 H           1.8038   -1.5773   -1.9265 H       1  UNL1        0.0426
     28 H           0.6804   -2.2277   -0.7444 H       1  UNL1        0.0426
     29 H           0.7825    1.8401   -1.6234 H       1  UNL1        0.2106
     30 H          -1.3973    1.3595   -1.3024 H       1  UNL1        0.0658
     31 H           0.1159   -1.2783    1.7855 H       1  UNL1        0.0621
     32 H           2.3915   -3.7361   -1.1692 H       1  UNL1        0.1182
     33 H           2.5042   -3.2348    0.3779 H       1  UNL1        0.1182
     34 H          -2.1558   -1.9589    2.3076 H       1  UNL1        0.0619
     35 H          -4.0487   -1.0413    1.1181 H       1  UNL1        0.0654
     36 H          -5.9200    0.8456   -1.1382 H       1  UNL1        0.0660
     37 H          -5.4374    0.6002    0.5367 H       1  UNL1        0.0660
     38 H          -5.3327   -0.7489   -0.6789 H       1  UNL1        0.0660
@<TRIPOS>BOND
     1     1     4    1
     2     1    29    1
     3     2    14    1
     4     2    17    1
     5     3    10    1
     6     3    32    1
     7     3    33    1
     8     4     5    1
     9     4     6    1
    10     4    11    1
    11     5     7    1
    12     5    10    1
    13     5    18    1
    14     6     8    1
    15     6    19    1
    16     6    20    1
    17     7     9    1
    18     7    21    1
    19     7    22    1
    20     8     9    1
    21     8    23    1
    22     8    24    1
    23     9    25    1
    24     9    26    1
    25    10    27    1
    26    10    28    1
    27    11    12   ar
    28    11    13   ar
    29    12    14   ar
    30    12    30    1
    31    13    15   ar
    32    13    31    1
    33    14    16   ar
    34    15    16   ar
    35    15    34    1
    36    16    35    1
    37    17    36    1
    38    17    37    1
    39    17    38    1
@<TRIPOS>MOLECULE
25271934
 45 46 0 0 0
SMALL
GASTEIGER

@<TRIPOS>ATOM
      1 O          -0.8172    1.6882   -1.7798 O.3     1  UNL1       -0.3835
      2 O          -2.9444   -1.7475    0.9312 O.co2   1  UNL1       -0.7759
      3 O           3.6291   -0.8153    1.4994 O.3     1  UNL1       -0.4951
      4 N          -2.0903   -2.1202   -0.0883 N.3     1  UNL1        0.2131
      5 C          -1.4237    0.2390    0.0808 C.3     1  UNL1        0.0320
      6 C          -0.3769    1.2517   -0.4847 C.3     1  UNL1        0.0987
      7 C          -2.7709    0.9151    0.4029 C.3     1  UNL1       -0.0424
      8 C          -0.2764    2.5083    0.4150 C.3     1  UNL1       -0.0194
      9 C          -1.6754   -0.9421   -0.8676 C.3     1  UNL1       -0.0273
     10 C          -2.6010    2.1253    1.3142 C.3     1  UNL1       -0.0524
     11 C          -1.6320    3.1421    0.7264 C.3     1  UNL1       -0.0501
     12 C           1.0182    0.6241   -0.6208 C.ar    1  UNL1       -0.0122
     13 C          -0.8907   -2.8035    0.5287 C.3     1  UNL1       -0.0441
     14 C          -2.8129   -3.1162   -0.9671 C.3     1  UNL1       -0.0441
     15 C           1.6982    0.1833    0.5145 C.ar    1  UNL1       -0.0140
     16 C           1.6055    0.4955   -1.8796 C.ar    1  UNL1       -0.0556
     17 C           2.9656   -0.3863    0.3912 C.ar    1  UNL1        0.1204
     18 C           2.8729   -0.0737   -2.0029 C.ar    1  UNL1       -0.0580
     19 C           3.5529   -0.5148   -0.8676 C.ar    1  UNL1       -0.0199
     20 C           2.9695   -0.6530    2.7542 C.3     1  UNL1        0.0788
     21 H          -1.0321   -0.1140    1.0420 H       1  UNL1        0.0384
     22 H          -3.5186    0.2809    0.8754 H       1  UNL1        0.0271
     23 H          -3.2325    1.2567   -0.5339 H       1  UNL1        0.0271
     24 H           0.3566    3.2679   -0.0624 H       1  UNL1        0.0296
     25 H           0.1975    2.2699    1.3748 H       1  UNL1        0.0296
     26 H          -0.7965   -1.2454   -1.4444 H       1  UNL1        0.0817
     27 H          -2.4826   -0.7136   -1.5737 H       1  UNL1        0.0817
     28 H          -2.2403    1.7968    2.2967 H       1  UNL1        0.0265
     29 H          -3.5741    2.6033    1.4754 H       1  UNL1        0.0265
     30 H          -2.0581    3.5692   -0.1894 H       1  UNL1        0.0266
     31 H          -1.4967    3.9719    1.4295 H       1  UNL1        0.0266
     32 H          -0.3273    2.4933   -2.0195 H       1  UNL1        0.2106
     33 H          -0.4001   -2.1140    1.2167 H       1  UNL1        0.0776
     34 H          -1.2588   -3.6744    1.0789 H       1  UNL1        0.0776
     35 H          -0.2195   -3.1080   -0.2786 H       1  UNL1        0.0776
     36 H          -3.7078   -2.6235   -1.3568 H       1  UNL1        0.0776
     37 H          -2.1329   -3.4076   -1.7715 H       1  UNL1        0.0776
     38 H          -3.0889   -3.9711   -0.3439 H       1  UNL1        0.0776
     39 H           1.2025    0.2912    1.4719 H       1  UNL1        0.0658
     40 H           1.1100    0.8183   -2.7899 H       1  UNL1        0.0621
     41 H           3.3300   -0.1756   -2.9828 H       1  UNL1        0.0619
     42 H           4.5398   -0.9578   -0.9701 H       1  UNL1        0.0654
     43 H           3.6412   -1.0458    3.5246 H       1  UNL1        0.0660
     44 H           2.0480   -1.2433    2.8043 H       1  UNL1        0.0660
     45 H           2.8008    0.4038    2.9875 H       1  UNL1        0.0660
@<TRIPOS>UNITY_ATOM_ATTR
2 1
charge -1
4 1
charge 1
@<TRIPOS>BOND
     1     1     6    1
     2     1    32    1
     3     2     4    1
     4     3    17    1
     5     3    20    1
     6     4     9    1
     7     4    13    1
     8     4    14    1
     9     5     6    1
    10     5     7    1
    11     5     9    1
    12     5    21    1
    13     6     8    1
    14     6    12    1
    15     7    10    1
    16     7    22    1
    17     7    23    1
    18     8    11    1
    19     8    24    1
    20     8    25    1
    21     9    26    1
    22     9    27    1
    23    10    11    1
    24    10    28    1
    25    10    29    1
    26    11    30    1
    27    11    31    1
    28    12    15   ar
    29    12    16   ar
    30    13    33    1
    31    13    34    1
    32    13    35    1
    33    14    36    1
    34    14    37    1
    35    14    38    1
    36    15    17   ar
    37    15    39    1
    38    16    18   ar
    39    16    40    1
    40    17    19   ar
    41    18    19   ar
    42    18    41    1
    43    19    42    1
    44    20    43    1
    45    20    44    1
    46    20    45    1
@<TRIPOS>MOLECULE
85838
 28 28 0 0 0
SMALL
GASTEIGER

@<TRIPOS>ATOM
      1 O          -1.0114   -2.2451    0.1238 O.2     1  UNL1       -0.2971
      2 N           2.3442    0.2999    0.1434 N.3     1  UNL1       -0.3077
      3 C          -0.0372   -0.0562   -0.2462 C.3     1  UNL1        0.0302
      4 C          -0.3901    1.2147    0.5327 C.3     1  UNL1       -0.0423
      5 C          -1.7426    1.7841    0.1067 C.3     1  UNL1       -0.0520
      6 C          -2.8520    0.7511    0.2851 C.3     1  UNL1       -0.0463
      7 C           1.2767   -0.6481    0.2541 C.3     1  UNL1        0.0078
      8 C          -2.5596   -0.5271   -0.4870 C.3     1  UNL1        0.0061
      9 C          -1.1846   -1.0558   -0.1384 C.2     1  UNL1        0.1376
     10 C           2.5504    0.7227   -1.2529 C.3     1  UNL1       -0.0130
     11 C           3.6061   -0.2403    0.6786 C.3     1  UNL1       -0.0130
     12 H           0.0202    0.1670   -1.3188 H       1  UNL1        0.0390
     13 H           0.3659    1.9940    0.3857 H       1  UNL1        0.0272
     14 H          -0.4214    0.9985    1.6088 H       1  UNL1        0.0272
     15 H          -1.6971    2.1035   -0.9416 H       1  UNL1        0.0266
     16 H          -1.9710    2.6735    0.7048 H       1  UNL1        0.0266
     17 H          -3.8071    1.1726   -0.0476 H       1  UNL1        0.0269
     18 H          -2.9575    0.5179    1.3521 H       1  UNL1        0.0269
     19 H           1.5022   -1.5688   -0.3021 H       1  UNL1        0.0433
     20 H           1.1498   -0.9518    1.3024 H       1  UNL1        0.0433
     21 H          -2.5926   -0.3497   -1.5674 H       1  UNL1        0.0342
     22 H          -3.3088   -1.2880   -0.2447 H       1  UNL1        0.0342
     23 H           2.6787   -0.1309   -1.9283 H       1  UNL1        0.0391
     24 H           3.4476    1.3490   -1.3306 H       1  UNL1        0.0391
     25 H           1.7346    1.3526   -1.6192 H       1  UNL1        0.0391
     26 H           3.4832   -0.5266    1.7291 H       1  UNL1        0.0391
     27 H           4.3933    0.5212    0.6508 H       1  UNL1        0.0391
     28 H           3.9474   -1.1175    0.1172 H       1  UNL1        0.0391
@<TRIPOS>BOND
     1     1     9    2
     2     2     7    1
     3     2    10    1
     4     2    11    1
     5     3     4    1
     6     3     7    1
     7     3     9    1
     8     3    12    1
     9     4     5    1
    10     4    13    1
    11     4    14    1
    12     5     6    1
    13     5    15    1
    14     5    16    1
    15     6     8    1
    16     6    17    1
    17     6    18    1
    18     7    19    1
    19     7    20    1
    20     8     9    1
    21     8    21    1
    22     8    22    1
    23    10    23    1
    24    10    24    1
    25    10    25    1
    26    11    26    1
    27    11    27    1
    28    11    28    1
@<TRIPOS>MOLECULE
22016064
 45 46 0 0 0
SMALL
GASTEIGER

@<TRIPOS>ATOM
      1 O          -0.8183    1.6896   -1.7787 O.3     1  UNL1       -0.3835
      2 O          -2.9419   -1.7505    0.9302 O.co2   1  UNL1       -0.7759
      3 O           3.6288   -0.8162    1.4979 O.3     1  UNL1       -0.4951
      4 N          -2.0876   -2.1216   -0.0897 N.3     1  UNL1        0.2131
      5 C          -1.4236    0.2383    0.0809 C.3     1  UNL1        0.0320
      6 C          -0.3780    1.2525   -0.4838 C.3     1  UNL1        0.0987
      7 C          -2.7718    0.9123    0.4038 C.3     1  UNL1       -0.0424
      8 C          -0.2791    2.5087    0.4165 C.3     1  UNL1       -0.0194
      9 C          -1.6742   -0.9425   -0.8683 C.3     1  UNL1       -0.0273
     10 C          -2.6032    2.1225    1.3155 C.3     1  UNL1       -0.0524
     11 C          -1.6357    3.1407    0.7278 C.3     1  UNL1       -0.0501
     12 C           1.0177    0.6263   -0.6199 C.ar    1  UNL1       -0.0122
     13 C          -2.8093   -3.1179   -0.9691 C.3     1  UNL1       -0.0441
     14 C          -0.8871   -2.8039    0.5265 C.3     1  UNL1       -0.0441
     15 C           1.6979    0.1846    0.5150 C.ar    1  UNL1       -0.0140
     16 C           1.6049    0.4990   -1.8786 C.ar    1  UNL1       -0.0556
     17 C           2.9652   -0.3844    0.3910 C.ar    1  UNL1        0.1204
     18 C           2.8724   -0.0700   -2.0027 C.ar    1  UNL1       -0.0580
     19 C           3.5525   -0.5117   -0.8678 C.ar    1  UNL1       -0.0199
     20 C           2.9705   -0.6558    2.7536 C.3     1  UNL1        0.0788
     21 H          -1.0316   -0.1151    1.0418 H       1  UNL1        0.0384
     22 H          -3.2340    1.2537   -0.5327 H       1  UNL1        0.0271
     23 H          -3.5185    0.2770    0.8764 H       1  UNL1        0.0271
     24 H           0.1949    2.2704    1.3763 H       1  UNL1        0.0296
     25 H           0.3531    3.2694   -0.0604 H       1  UNL1        0.0296
     26 H          -0.7951   -1.2444   -1.4455 H       1  UNL1        0.0817
     27 H          -2.4818   -0.7144   -1.5740 H       1  UNL1        0.0817
     28 H          -3.5769    2.5993    1.4771 H       1  UNL1        0.0265
     29 H          -2.2420    1.7942    2.2978 H       1  UNL1        0.0265
     30 H          -1.5016    3.9707    1.4309 H       1  UNL1        0.0266
     31 H          -2.0623    3.5673   -0.1881 H       1  UNL1        0.0266
     32 H          -0.3290    2.4952   -2.0178 H       1  UNL1        0.2106
     33 H          -3.0842   -3.9735   -0.3464 H       1  UNL1        0.0776
     34 H          -2.1291   -3.4080   -1.7737 H       1  UNL1        0.0776
     35 H          -3.7050   -2.6260   -1.3583 H       1  UNL1        0.0776
     36 H          -0.2157   -3.1070   -0.2811 H       1  UNL1        0.0776
     37 H          -1.2542   -3.6757    1.0761 H       1  UNL1        0.0776
     38 H          -0.3971   -2.1144    1.2150 H       1  UNL1        0.0776
     39 H           1.2024    0.2913    1.4726 H       1  UNL1        0.0658
     40 H           1.1093    0.8223   -2.7887 H       1  UNL1        0.0621
     41 H           3.3294   -0.1710   -2.9828 H       1  UNL1        0.0619
     42 H           4.5393   -0.9547   -0.9708 H       1  UNL1        0.0654
     43 H           2.8021    0.4008    2.9887 H       1  UNL1        0.0660
     44 H           2.0488   -1.2457    2.8033 H       1  UNL1        0.0660
     45 H           3.6427   -1.0500    3.5229 H       1  UNL1        0.0660
@<TRIPOS>UNITY_ATOM_ATTR
2 1
charge -1
4 1
charge 1
@<TRIPOS>BOND
     1     1     6    1
     2     1    32    1
     3     2     4    1
     4     3    17    1
     5     3    20    1
     6     4     9    1
     7     4    13    1
     8     4    14    1
     9     5     6    1
    10     5     7    1
    11     5     9    1
    12     5    21    1
    13     6     8    1
    14     6    12    1
    15     7    10    1
    16     7    22    1
    17     7    23    1
    18     8    11    1
    19     8    24    1
    20     8    25    1
    21     9    26    1
    22     9    27    1
    23    10    11    1
    24    10    28    1
    25    10    29    1
    26    11    30    1
    27    11    31    1
    28    12    15   ar
    29    12    16   ar
    30    13    33    1
    31    13    34    1
    32    13    35    1
    33    14    36    1
    34    14    37    1
    35    14    38    1
    36    15    17   ar
    37    15    39    1
    38    16    18   ar
    39    16    40    1
    40    17    19   ar
    41    18    19   ar
    42    18    41    1
    43    19    42    1
    44    20    43    1
    45    20    44    1
    46    20    45    1
@<TRIPOS>MOLECULE
146157275
 45 46 0 0 0
SMALL
GASTEIGER

@<TRIPOS>ATOM
      1 O          -0.8790    1.7535   -1.6898 O.3     1  UNL1       -0.3835
      2 O          -2.9352   -1.8100    0.8490 O.co2   1  UNL1       -0.7759
      3 O           3.6363   -0.8415    1.4613 O.3     1  UNL1       -0.4951
      4 N          -2.0282   -2.1551   -0.1336 N.3     1  UNL1        0.2131
      5 C          -1.4188    0.2163    0.0870 C.3     1  UNL1        0.0320
      6 C          -0.3899    1.2708   -0.4279 C.3     1  UNL1        0.0987
      7 C          -2.7960    0.8579    0.3514 C.3     1  UNL1       -0.0424
      8 C          -0.3380    2.4836    0.5351 C.3     1  UNL1       -0.0194
      9 C          -1.6029   -0.9609   -0.8825 C.3     1  UNL1       -0.0273
     10 C          -2.7003    2.0512    1.2961 C.3     1  UNL1       -0.0524
     11 C          -1.7166    3.0951    0.7843 C.3     1  UNL1       -0.0501
     12 C           1.0129    0.6728   -0.5898 C.ar    1  UNL1       -0.0122
     13 C          -0.8440   -2.8200    0.5312 C.3     1  UNL1       -0.0441
     14 C          -2.6893   -3.1567   -1.0537 C.3     1  UNL1       -0.0441
     15 C           1.6950    0.1815    0.5230 C.ar    1  UNL1       -0.0140
     16 C           1.6065    0.6200   -1.8510 C.ar    1  UNL1       -0.0556
     17 C           2.9708   -0.3628    0.3749 C.ar    1  UNL1        0.1204
     18 C           2.8822    0.0758   -1.9992 C.ar    1  UNL1       -0.0580
     19 C           3.5644   -0.4154   -0.8862 C.ar    1  UNL1       -0.0199
     20 C           2.9702   -0.7561    2.7203 C.3     1  UNL1        0.0788
     21 H          -1.0547   -0.1369    1.0589 H       1  UNL1        0.0384
     22 H          -3.5533    0.1994    0.7724 H       1  UNL1        0.0271
     23 H          -3.2205    1.2081   -0.5996 H       1  UNL1        0.0271
     24 H           0.3137    3.2647    0.1217 H       1  UNL1        0.0296
     25 H           0.0882    2.2012    1.5053 H       1  UNL1        0.0296
     26 H          -2.3824   -0.7420   -1.6220 H       1  UNL1        0.0817
     27 H          -0.6940   -1.2421   -1.4224 H       1  UNL1        0.0817
     28 H          -2.3898    1.7075    2.2905 H       1  UNL1        0.0265
     29 H          -3.6892    2.5098    1.4117 H       1  UNL1        0.0265
     30 H          -2.1002    3.5437   -0.1399 H       1  UNL1        0.0266
     31 H          -1.6295    3.9067    1.5157 H       1  UNL1        0.0266
     32 H          -0.3903    2.5626   -1.9187 H       1  UNL1        0.2106
     33 H          -0.3998   -2.1277    1.2475 H       1  UNL1        0.0776
     34 H          -0.1304   -3.1024   -0.2472 H       1  UNL1        0.0776
     35 H          -1.2186   -3.7038    1.0559 H       1  UNL1        0.0776
     36 H          -3.5757   -2.6784   -1.4793 H       1  UNL1        0.0776
     37 H          -2.9755   -4.0233   -0.4516 H       1  UNL1        0.0776
     38 H          -1.9675   -3.4260   -1.8287 H       1  UNL1        0.0776
     39 H           1.1948    0.2349    1.4827 H       1  UNL1        0.0658
     40 H           1.1068    0.9862   -2.7425 H       1  UNL1        0.0621
     41 H           3.3442    0.0332   -2.9812 H       1  UNL1        0.0619
     42 H           4.5578   -0.8384   -1.0079 H       1  UNL1        0.0654
     43 H           3.6444   -1.1810    3.4713 H       1  UNL1        0.0660
     44 H           2.7864    0.2843    3.0096 H       1  UNL1        0.0660
     45 H           2.0565   -1.3603    2.7344 H       1  UNL1        0.0660
@<TRIPOS>UNITY_ATOM_ATTR
2 1
charge -1
4 1
charge 1
@<TRIPOS>BOND
     1     1     6    1
     2     1    32    1
     3     2     4    1
     4     3    17    1
     5     3    20    1
     6     4     9    1
     7     4    13    1
     8     4    14    1
     9     5     6    1
    10     5     7    1
    11     5     9    1
    12     5    21    1
    13     6     8    1
    14     6    12    1
    15     7    10    1
    16     7    22    1
    17     7    23    1
    18     8    11    1
    19     8    24    1
    20     8    25    1
    21     9    26    1
    22     9    27    1
    23    10    11    1
    24    10    28    1
    25    10    29    1
    26    11    30    1
    27    11    31    1
    28    12    15   ar
    29    12    16   ar
    30    13    33    1
    31    13    34    1
    32    13    35    1
    33    14    36    1
    34    14    37    1
    35    14    38    1
    36    15    17   ar
    37    15    39    1
    38    16    18   ar
    39    16    40    1
    40    17    19   ar
    41    18    19   ar
    42    18    41    1
    43    19    42    1
    44    20    43    1
    45    20    44    1
    46    20    45    1
@<TRIPOS>MOLECULE
40424862
 35 36 0 0 0
SMALL
GASTEIGER

@<TRIPOS>ATOM
      1 O          -1.1156    0.3243   -1.8625 O.3     1  UNL1       -0.3836
      2 O           3.4568    0.2546    2.1222 O.3     1  UNL1       -0.5068
      3 N          -1.9754   -3.0648    0.6025 N.3     1  UNL1       -0.3296
      4 C          -0.7185    0.4113   -0.4855 C.3     1  UNL1        0.0950
      5 C          -1.5004   -0.6705    0.3265 C.3     1  UNL1        0.0043
      6 C          -1.0698    1.8373    0.0058 C.3     1  UNL1       -0.0195
      7 C          -3.0092   -0.3636    0.4002 C.3     1  UNL1       -0.0461
      8 C          -2.5737    2.1001    0.0815 C.3     1  UNL1       -0.0501
      9 C          -3.2828    1.0438    0.9180 C.3     1  UNL1       -0.0526
     10 C          -1.3088   -2.0858   -0.2374 C.3     1  UNL1       -0.0011
     11 C           0.8019    0.2140   -0.3946 C.ar    1  UNL1       -0.0124
     12 C           1.4469    0.3244    0.8374 C.ar    1  UNL1       -0.0143
     13 C           1.5379   -0.0748   -1.5438 C.ar    1  UNL1       -0.0556
     14 C           2.8279    0.1458    0.9201 C.ar    1  UNL1        0.1172
     15 C           2.9189   -0.2530   -1.4612 C.ar    1  UNL1       -0.0580
     16 C           3.5639   -0.1430   -0.2293 C.ar    1  UNL1       -0.0202
     17 H          -1.1262   -0.6616    1.3605 H       1  UNL1        0.0344
     18 H          -0.6221    2.5895   -0.6573 H       1  UNL1        0.0296
     19 H          -0.6574    2.0207    1.0054 H       1  UNL1        0.0296
     20 H          -3.5218   -1.0699    1.0635 H       1  UNL1        0.0269
     21 H          -3.4635   -0.4752   -0.5928 H       1  UNL1        0.0269
     22 H          -2.9970    2.1124   -0.9302 H       1  UNL1        0.0266
     23 H          -2.7521    3.0922    0.5116 H       1  UNL1        0.0266
     24 H          -2.9531    1.1203    1.9615 H       1  UNL1        0.0265
     25 H          -4.3620    1.2343    0.9106 H       1  UNL1        0.0265
     26 H          -0.2457   -2.3417   -0.2888 H       1  UNL1        0.0426
     27 H          -1.7120   -2.1577   -1.2535 H       1  UNL1        0.0426
     28 H          -0.8443    1.1404   -2.3165 H       1  UNL1        0.2106
     29 H           0.8908    0.5401    1.7456 H       1  UNL1        0.0658
     30 H           1.0768   -0.1765   -2.5212 H       1  UNL1        0.0621
     31 H          -1.5826   -3.0392    1.5426 H       1  UNL1        0.1182
     32 H          -1.7952   -4.0012    0.2431 H       1  UNL1        0.1182
     33 H           3.4921   -0.4794   -2.3555 H       1  UNL1        0.0619
     34 H           4.6401   -0.2845   -0.1783 H       1  UNL1        0.0654
     35 H           4.4088    0.1015    1.9945 H       1  UNL1        0.2921
@<TRIPOS>BOND
     1     1     4    1
     2     1    28    1
     3     2    14    1
     4     2    35    1
     5     3    10    1
     6     3    31    1
     7     3    32    1
     8     4     5    1
     9     4     6    1
    10     4    11    1
    11     5     7    1
    12     5    10    1
    13     5    17    1
    14     6     8    1
    15     6    18    1
    16     6    19    1
    17     7     9    1
    18     7    20    1
    19     7    21    1
    20     8     9    1
    21     8    22    1
    22     8    23    1
    23     9    24    1
    24     9    25    1
    25    10    26    1
    26    10    27    1
    27    11    12   ar
    28    11    13   ar
    29    12    14   ar
    30    12    29    1
    31    13    15   ar
    32    13    30    1
    33    14    16   ar
    34    15    16   ar
    35    15    33    1
    36    16    34    1
@<TRIPOS>MOLECULE
9813907
 44 45 0 0 0
SMALL
GASTEIGER

@<TRIPOS>ATOM
      1 O          -0.6355    1.8269   -1.5905 O.3     1  UNL1       -0.3836
      2 O           3.6792   -0.9859   -1.0553 O.3     1  UNL1       -0.4951
      3 N          -2.1122   -2.3975    0.3498 N.3     1  UNL1       -0.3080
      4 C          -1.4950   -0.2209   -0.5566 C.3     1  UNL1        0.0048
      5 C          -0.7096    1.1138   -0.3383 C.3     1  UNL1        0.0950
      6 C          -2.9390    0.0556   -1.0253 C.3     1  UNL1       -0.0461
      7 C          -1.5034    2.0520    0.6042 C.3     1  UNL1       -0.0195
      8 C          -3.6965    1.0024   -0.0992 C.3     1  UNL1       -0.0526
      9 C          -2.9345    2.3027    0.1215 C.3     1  UNL1       -0.0501
     10 C          -1.5002   -1.1337    0.6794 C.3     1  UNL1        0.0041
     11 C           0.7422    0.8709    0.0807 C.ar    1  UNL1       -0.0124
     12 C           1.5575    0.0439   -0.6887 C.ar    1  UNL1       -0.0141
     13 C           1.2431    1.4779    1.2301 C.ar    1  UNL1       -0.0556
     14 C          -2.1336   -3.2965    1.5121 C.3     1  UNL1       -0.0130
     15 C          -1.4151   -3.0501   -0.7672 C.3     1  UNL1       -0.0130
     16 C           2.8806   -0.1773   -0.3067 C.ar    1  UNL1        0.1204
     17 C           2.5662    1.2566    1.6122 C.ar    1  UNL1       -0.0580
     18 C           3.3849    0.4291    0.8438 C.ar    1  UNL1       -0.0199
     19 C           5.0209   -1.1697   -0.6062 C.3     1  UNL1        0.0788
     20 H          -1.0027   -0.7172   -1.3985 H       1  UNL1        0.0344
     21 H          -3.5140   -0.8684   -1.1495 H       1  UNL1        0.0269
     22 H          -2.9018    0.5090   -2.0250 H       1  UNL1        0.0269
     23 H          -1.0158    3.0339    0.6642 H       1  UNL1        0.0296
     24 H          -1.5460    1.6417    1.6207 H       1  UNL1        0.0296
     25 H          -3.8879    0.5172    0.8645 H       1  UNL1        0.0265
     26 H          -4.6780    1.2270   -0.5328 H       1  UNL1        0.0265
     27 H          -2.9164    2.8788   -0.8117 H       1  UNL1        0.0266
     28 H          -3.4655    2.9175    0.8574 H       1  UNL1        0.0266
     29 H          -2.0445   -0.6571    1.5021 H       1  UNL1        0.0430
     30 H          -0.4779   -1.2956    1.0418 H       1  UNL1        0.0430
     31 H          -0.4188    1.1939   -2.2956 H       1  UNL1        0.2106
     32 H           1.1883   -0.4285   -1.5944 H       1  UNL1        0.0658
     33 H           0.6510    2.1279    1.8640 H       1  UNL1        0.0621
     34 H          -2.6728   -2.8318    2.3452 H       1  UNL1        0.0391
     35 H          -1.1239   -3.5527    1.8528 H       1  UNL1        0.0391
     36 H          -2.6667   -4.2233    1.2730 H       1  UNL1        0.0391
     37 H          -1.7460   -4.0918   -0.8646 H       1  UNL1        0.0391
     38 H          -0.3273   -3.0644   -0.6327 H       1  UNL1        0.0391
     39 H          -1.6627   -2.5978   -1.7320 H       1  UNL1        0.0391
     40 H           2.9585    1.7285    2.5085 H       1  UNL1        0.0619
     41 H           4.4019    0.3004    1.1982 H       1  UNL1        0.0654
     42 H           5.5113   -1.8407   -1.3191 H       1  UNL1        0.0660
     43 H           5.0539   -1.6627    0.3713 H       1  UNL1        0.0660
     44 H           5.5810   -0.2285   -0.6157 H       1  UNL1        0.0660
@<TRIPOS>BOND
     1     1     5    1
     2     1    31    1
     3     2    16    1
     4     2    19    1
     5     3    10    1
     6     3    14    1
     7     3    15    1
     8     4     5    1
     9     4     6    1
    10     4    10    1
    11     4    20    1
    12     5     7    1
    13     5    11    1
    14     6     8    1
    15     6    21    1
    16     6    22    1
    17     7     9    1
    18     7    23    1
    19     7    24    1
    20     8     9    1
    21     8    25    1
    22     8    26    1
    23     9    27    1
    24     9    28    1
    25    10    29    1
    26    10    30    1
    27    11    12   ar
    28    11    13   ar
    29    12    16   ar
    30    12    32    1
    31    13    17   ar
    32    13    33    1
    33    14    34    1
    34    14    35    1
    35    14    36    1
    36    15    37    1
    37    15    38    1
    38    15    39    1
    39    16    18   ar
    40    17    18   ar
    41    17    40    1
    42    18    41    1
    43    19    42    1
    44    19    43    1
    45    19    44    1
@<TRIPOS>MOLECULE
10465484
 28 29 0 0 0
SMALL
GASTEIGER

@<TRIPOS>ATOM
      1 O          -4.6549    0.4600    0.1309 O.2     1  UNL1       -0.2741
      2 N          -1.2479    1.1542   -0.5619 N.2     1  UNL1       -0.1840
      3 N          -2.6001    1.1967   -0.5695 N.am    1  UNL1       -0.2067
      4 N           5.0375    0.0469    0.1131 N.pl3   1  UNL1       -0.3580
      5 C          -1.4345   -1.1073    0.4081 C.3     1  UNL1        0.0089
      6 C          -2.7290   -0.6218    1.0412 C.3     1  UNL1        0.0336
      7 C          -0.6529    0.1065   -0.0754 C.2     1  UNL1        0.0697
      8 C          -1.7000   -2.0622   -0.7573 C.3     1  UNL1       -0.0565
      9 C           0.8460    0.0909   -0.0263 C.ar    1  UNL1       -0.0019
     10 C          -3.4279    0.3687    0.1511 C.2     1  UNL1        0.2328
     11 C           1.5295   -1.1141   -0.1593 C.ar    1  UNL1       -0.0511
     12 C           1.5443    1.2815    0.1527 C.ar    1  UNL1       -0.0511
     13 C           2.9235   -1.1288   -0.1128 C.ar    1  UNL1       -0.0404
     14 C           2.9384    1.2670    0.1991 C.ar    1  UNL1       -0.0404
     15 C           3.6281    0.0618    0.0663 C.ar    1  UNL1        0.0246
     16 H          -0.8550   -1.6360    1.1738 H       1  UNL1        0.0366
     17 H          -2.5195   -0.1126    1.9898 H       1  UNL1        0.0365
     18 H          -3.4018   -1.4608    1.2485 H       1  UNL1        0.0365
     19 H          -2.2139   -2.9620   -0.4022 H       1  UNL1        0.0236
     20 H          -2.3339   -1.5987   -1.5217 H       1  UNL1        0.0236
     21 H          -0.7887   -2.3809   -1.2670 H       1  UNL1        0.0236
     22 H          -2.9924    1.9464   -1.1299 H       1  UNL1        0.1772
     23 H           1.0272   -2.0645   -0.2855 H       1  UNL1        0.0625
     24 H           1.0265    2.2301    0.2658 H       1  UNL1        0.0625
     25 H           3.4499   -2.0745   -0.2142 H       1  UNL1        0.0636
     26 H           3.4760    2.2011    0.3409 H       1  UNL1        0.0636
     27 H           5.5488    0.9098    0.2424 H       1  UNL1        0.1423
     28 H           5.5381   -0.8265    0.0163 H       1  UNL1        0.1423
@<TRIPOS>BOND
     1     1    10    2
     2     2     3    1
     3     2     7    2
     4     3    10   am
     5     3    22    1
     6     4    15    1
     7     4    27    1
     8     4    28    1
     9     5     6    1
    10     5     7    1
    11     5     8    1
    12     5    16    1
    13     6    10    1
    14     6    17    1
    15     6    18    1
    16     7     9    1
    17     8    19    1
    18     8    20    1
    19     8    21    1
    20     9    11   ar
    21     9    12   ar
    22    11    13   ar
    23    11    23    1
    24    12    14   ar
    25    12    24    1
    26    13    15   ar
    27    13    25    1
    28    14    15   ar
    29    14    26    1
